<?xml version="1.0" encoding="UTF-8"?>

<!-- generated on Tue 03 Dec 2019 16:17:35 GMT by Eclipse SUMO netedit Version 1.3.1
<configuration xmlns:xsi="http://www.w3.org/2001/XMLSchema-instance" xsi:noNamespaceSchemaLocation="http://sumo.dlr.de/xsd/netconvertConfiguration.xsd">

    <input>
        <sumo-net-file value="/home/benedikt/dev/DriveML/tracks/1lane_new_b/map.net.xml"/>
    </input>

    <output>
        <output-file value="/home/benedikt/dev/DriveML/tracks/1lane_new_b/map.net.xml"/>
    </output>

    <processing>
        <geometry.max-grade.fix value="false"/>
        <offset.disable-normalization value="true"/>
        <opposites.guess.fix-lengths value="true"/>
        <lefthand value="false"/>
    </processing>

    <junctions>
        <no-turnarounds value="true"/>
        <junctions.corner-detail value="5"/>
        <junctions.limit-turn-speed value="5.5"/>
        <rectangular-lane-cut value="false"/>
    </junctions>

    <pedestrian>
        <walkingareas value="false"/>
    </pedestrian>

</configuration>
-->

<net version="1.3" junctionCornerDetail="5" limitTurnSpeed="5.50" xmlns:xsi="http://www.w3.org/2001/XMLSchema-instance" xsi:noNamespaceSchemaLocation="http://sumo.dlr.de/xsd/net_file.xsd">

    <location netOffset="-630882.85,-4856133.12" convBoundary="-125.29,-100.37,254.78,121.29" origBoundary="-79.371708,43.846679,-79.369237,43.847436" projParameter="+proj=utm +zone=17 +ellps=WGS84 +datum=WGS84 +units=m +no_defs"/>

    <type id="highway.bridleway" priority="1" numLanes="1" speed="2.78" allow="pedestrian" oneway="1" width="2.00"/>
    <type id="highway.bus_guideway" priority="1" numLanes="1" speed="27.78" allow="bus" oneway="1"/>
    <type id="highway.cycleway" priority="1" numLanes="1" speed="8.33" allow="bicycle" oneway="0" width="1.00"/>
    <type id="highway.footway" priority="1" numLanes="1" speed="2.78" allow="pedestrian" oneway="1" width="2.00"/>
    <type id="highway.ford" priority="1" numLanes="1" speed="2.78" allow="army" oneway="0"/>
    <type id="highway.living_street" priority="2" numLanes="1" speed="2.78" disallow="tram rail_urban rail rail_electric ship" oneway="0"/>
    <type id="highway.motorway" priority="14" numLanes="2" speed="39.44" allow="private emergency authority army vip passenger hov taxi bus coach delivery truck trailer motorcycle evehicle custom1 custom2" oneway="1"/>
    <type id="highway.motorway_link" priority="9" numLanes="1" speed="22.22" allow="private emergency authority army vip passenger hov taxi bus coach delivery truck trailer motorcycle evehicle custom1 custom2" oneway="1"/>
    <type id="highway.path" priority="1" numLanes="1" speed="2.78" allow="pedestrian bicycle" oneway="1" width="2.00"/>
    <type id="highway.pedestrian" priority="1" numLanes="1" speed="2.78" allow="pedestrian" oneway="1" width="2.00"/>
    <type id="highway.primary" priority="12" numLanes="2" speed="27.78" disallow="tram rail_urban rail rail_electric ship" oneway="0"/>
    <type id="highway.primary_link" priority="7" numLanes="1" speed="22.22" disallow="tram rail_urban rail rail_electric ship" oneway="0"/>
    <type id="highway.raceway" priority="15" numLanes="2" speed="83.33" allow="vip" oneway="0"/>
    <type id="highway.residential" priority="3" numLanes="1" speed="13.89" disallow="tram rail_urban rail rail_electric ship" oneway="0"/>
    <type id="highway.secondary" priority="11" numLanes="2" speed="27.78" disallow="tram rail_urban rail rail_electric ship" oneway="0"/>
    <type id="highway.secondary_link" priority="6" numLanes="1" speed="22.22" disallow="tram rail_urban rail rail_electric ship" oneway="0"/>
    <type id="highway.service" priority="1" numLanes="1" speed="5.56" allow="pedestrian delivery bicycle" oneway="0"/>
    <type id="highway.stairs" priority="1" numLanes="1" speed="1.39" allow="pedestrian" oneway="1" width="2.00"/>
    <type id="highway.step" priority="1" numLanes="1" speed="1.39" allow="pedestrian" oneway="1" width="2.00"/>
    <type id="highway.steps" priority="1" numLanes="1" speed="1.39" allow="pedestrian" oneway="1" width="2.00"/>
    <type id="highway.tertiary" priority="10" numLanes="1" speed="22.22" disallow="tram rail_urban rail rail_electric ship" oneway="0"/>
    <type id="highway.tertiary_link" priority="5" numLanes="1" speed="22.22" disallow="tram rail_urban rail rail_electric ship" oneway="0"/>
    <type id="highway.track" priority="1" numLanes="1" speed="5.56" disallow="tram rail_urban rail rail_electric ship" oneway="0"/>
    <type id="highway.trunk" priority="13" numLanes="2" speed="27.78" disallow="pedestrian bicycle tram rail_urban rail rail_electric ship" oneway="0"/>
    <type id="highway.trunk_link" priority="8" numLanes="1" speed="22.22" disallow="pedestrian bicycle tram rail_urban rail rail_electric ship" oneway="0"/>
    <type id="highway.unclassified" priority="4" numLanes="1" speed="13.89" disallow="tram rail_urban rail rail_electric ship" oneway="0"/>
    <type id="highway.unsurfaced" priority="1" numLanes="1" speed="8.33" disallow="tram rail_urban rail rail_electric ship" oneway="0"/>
    <type id="railway.light_rail" priority="19" numLanes="1" speed="27.78" allow="rail_urban" oneway="1"/>
    <type id="railway.preserved" priority="16" numLanes="1" speed="27.78" allow="rail" oneway="1"/>
    <type id="railway.rail" priority="20" numLanes="1" speed="83.33" allow="rail rail_electric" oneway="1"/>
    <type id="railway.subway" priority="18" numLanes="1" speed="27.78" allow="rail_urban" oneway="1"/>
    <type id="railway.tram" priority="17" numLanes="1" speed="13.89" allow="tram" oneway="1"/>

    <edge id=":4370324319_0" function="internal">
        <lane id=":4370324319_0_0" index="0" disallow="tram rail_urban rail rail_electric rail_fast ship" speed="16.67" length="0.10" shape="81.24,85.14 81.24,85.14"/>
    </edge>
    <edge id=":446557694_0" function="internal">
        <lane id=":446557694_0_0" index="0" disallow="tram rail_urban rail rail_electric rail_fast ship" speed="16.67" length="0.22" shape="114.93,68.19 114.99,68.16 115.03,68.14 115.07,68.11 115.12,68.08"/>
    </edge>

    <edge id="25304430" from="4370324319" to="446557694" priority="11" type="highway.secondary" spreadType="center">
        <lane id="25304430_0" index="0" disallow="tram rail_urban rail rail_electric rail_fast ship" speed="16.67" length="37.71" shape="81.24,85.14 114.93,68.19"/>
    </edge>
    <edge id="38014010" from="446557694" to="4370324319" priority="11" type="highway.secondary" spreadType="center" shape="115.03,68.14 121.31,63.79 126.00,58.00 128.21,53.03 128.55,46.96 126.66,40.94 124.00,36.00 120.55,31.72 115.78,28.34 110.48,25.93 105.31,22.48 101.92,18.74 100.00,14.00 99.80,8.97 101.38,5.03 105.02,2.98 110.00,3.79 115.17,6.69 119.11,10.70 122.07,14.90 126.18,16.92 130.00,16.41 133.20,13.70 134.90,9.93 138.41,6.48 143.73,4.34 149.54,4.32 154.00,6.00 193.90,33.50 199.94,35.20 206.21,33.99 210.97,30.72 211.94,26.54 210.92,22.58 206.04,20.02 200.15,20.45 196.03,20.66 192.55,19.73 187.15,16.89 182.42,12.05 179.34,5.87 173.22,-3.62 160.93,-16.13 152.31,-19.50 145.49,-18.16 137.98,-15.43 130.02,-12.84 122.55,-12.45 114.90,-13.57 106.79,-13.17 101.22,-13.89 95.10,-15.16 89.35,-17.66 85.65,-19.92 80.75,-21.12 75.07,-20.73 70.42,-18.78 66.85,-13.67 66.41,-8.61 68.02,-2.28 70.10,2.87 75.02,7.69 79.40,13.61 81.85,20.98 81.89,27.83 80.25,33.54 76.83,38.77 71.83,43.15 64.58,45.83 55.44,45.68 47.66,41.43 43.46,34.97 42.75,27.91 46.09,22.43 53.29,17.48 57.41,13.54 59.42,7.72 58.87,0.45 55.99,-7.11 50.81,-12.57 45.00,-15.93 37.20,-18.22 23.23,-17.59 3.18,-16.70 -40.94,-20.79 -49.31,-21.44 -59.61,-19.91 -69.67,-14.89 -75.71,-7.11 -77.50,1.78 -76.86,15.05 -72.17,25.64 -61.85,31.81 -51.01,32.99 -40.11,32.23 -31.85,25.90 -29.54,18.50 -26.35,12.23 -21.53,8.76 -14.71,6.60 -6.39,7.59 -0.06,11.38 3.14,20.67 2.77,34.41 -0.69,46.72 -13.85,59.42 -51.26,66.87 -81.99,63.64 -109.86,56.15 -117.12,52.95 -123.09,48.12 -125.29,42.35 -124.61,35.36 -116.33,-33.83 -114.21,-39.55 -108.99,-42.79 -101.48,-43.11 -96.66,-41.66 -91.84,-40.22 -87.35,-40.00 -24.79,-53.94 -19.35,-53.74 -14.89,-51.29 -10.18,-47.30 -5.37,-45.05 -1.49,-44.95 3.06,-46.12 6.29,-49.80 8.24,-53.36 10.76,-55.64 13.85,-55.91 17.43,-55.06 20.38,-53.70 23.00,-49.31 25.66,-46.51 28.36,-45.06 32.41,-45.61 36.08,-48.05 38.89,-52.54 43.21,-55.70 48.03,-55.93 52.58,-54.47 57.31,-50.24 63.55,-48.30 70.52,-51.25 76.71,-51.69 82.69,-48.92 88.74,-49.98 93.77,-52.27 98.26,-55.80 102.76,-58.03 109.03,-57.26 115.05,-54.63 119.38,-55.01 124.47,-57.14 130.12,-58.20 188.53,-97.04 192.04,-97.70 196.42,-96.49 200.05,-93.35 204.50,-92.19 207.88,-92.81 210.77,-94.80 213.27,-98.16 216.31,-100.37 221.10,-100.28 225.95,-96.75 254.08,-17.47 254.78,-12.56 253.90,-7.57 250.77,-3.62 245.78,-0.28 241.63,2.56 238.45,7.28 236.30,12.34 233.16,18.28 230.96,24.80 227.88,31.54 224.45,36.07 218.76,38.44 210.84,40.18 204.69,42.34 200.53,45.67 198.07,49.43 194.56,52.33 184.00,58.00 92.00,102.00 88.00,106.00 85.77,109.39 84.11,113.29 80.00,118.00 75.37,120.27 70.56,121.29 65.63,120.87 61.62,119.06 58.09,116.01 55.31,111.92 53.55,107.11 53.47,101.62 55.39,96.20 58.90,91.71 63.26,88.65 67.63,87.68 71.73,87.77 75.85,87.52 81.24,85.14">
        <lane id="38014010_0" index="0" disallow="tram rail_urban rail rail_electric rail_fast ship" speed="16.67" length="1831.98" shape="115.12,68.08 121.31,63.79 126.00,58.00 128.21,53.03 128.55,46.96 126.66,40.94 124.00,36.00 120.55,31.72 115.78,28.34 110.48,25.93 105.31,22.48 101.92,18.74 100.00,14.00 99.80,8.97 101.38,5.03 105.02,2.98 110.00,3.79 115.17,6.69 119.11,10.70 122.07,14.90 126.18,16.92 130.00,16.41 133.20,13.70 134.90,9.93 138.41,6.48 143.73,4.34 149.54,4.32 154.00,6.00 193.90,33.50 199.94,35.20 206.21,33.99 210.97,30.72 211.94,26.54 210.92,22.58 206.04,20.02 200.15,20.45 196.03,20.66 192.55,19.73 187.15,16.89 182.42,12.05 179.34,5.87 173.22,-3.62 160.93,-16.13 152.31,-19.50 145.49,-18.16 137.98,-15.43 130.02,-12.84 122.55,-12.45 114.90,-13.57 106.79,-13.17 101.22,-13.89 95.10,-15.16 89.35,-17.66 85.65,-19.92 80.75,-21.12 75.07,-20.73 70.42,-18.78 66.85,-13.67 66.41,-8.61 68.02,-2.28 70.10,2.87 75.02,7.69 79.40,13.61 81.85,20.98 81.89,27.83 80.25,33.54 76.83,38.77 71.83,43.15 64.58,45.83 55.44,45.68 47.66,41.43 43.46,34.97 42.75,27.91 46.09,22.43 53.29,17.48 57.41,13.54 59.42,7.72 58.87,0.45 55.99,-7.11 50.81,-12.57 45.00,-15.93 37.20,-18.22 23.23,-17.59 3.18,-16.70 -40.94,-20.79 -49.31,-21.44 -59.61,-19.91 -69.67,-14.89 -75.71,-7.11 -77.50,1.78 -76.86,15.05 -72.17,25.64 -61.85,31.81 -51.01,32.99 -40.11,32.23 -31.85,25.90 -29.54,18.50 -26.35,12.23 -21.53,8.76 -14.71,6.60 -6.39,7.59 -0.06,11.38 3.14,20.67 2.77,34.41 -0.69,46.72 -13.85,59.42 -51.26,66.87 -81.99,63.64 -109.86,56.15 -117.12,52.95 -123.09,48.12 -125.29,42.35 -124.61,35.36 -116.33,-33.83 -114.21,-39.55 -108.99,-42.79 -101.48,-43.11 -96.66,-41.66 -91.84,-40.22 -87.35,-40.00 -24.79,-53.94 -19.35,-53.74 -14.89,-51.29 -10.18,-47.30 -5.37,-45.05 -1.49,-44.95 3.06,-46.12 6.29,-49.80 8.24,-53.36 10.76,-55.64 13.85,-55.91 17.43,-55.06 20.38,-53.70 23.00,-49.31 25.66,-46.51 28.36,-45.06 32.41,-45.61 36.08,-48.05 38.89,-52.54 43.21,-55.70 48.03,-55.93 52.58,-54.47 57.31,-50.24 63.55,-48.30 70.52,-51.25 76.71,-51.69 82.69,-48.92 88.74,-49.98 93.77,-52.27 98.26,-55.80 102.76,-58.03 109.03,-57.26 115.05,-54.63 119.38,-55.01 124.47,-57.14 130.12,-58.20 188.53,-97.04 192.04,-97.70 196.42,-96.49 200.05,-93.35 204.50,-92.19 207.88,-92.81 210.77,-94.80 213.27,-98.16 216.31,-100.37 221.10,-100.28 225.95,-96.75 254.08,-17.47 254.78,-12.56 253.90,-7.57 250.77,-3.62 245.78,-0.28 241.63,2.56 238.45,7.28 236.30,12.34 233.16,18.28 230.96,24.80 227.88,31.54 224.45,36.07 218.76,38.44 210.84,40.18 204.69,42.34 200.53,45.67 198.07,49.43 194.56,52.33 184.00,58.00 92.00,102.00 88.00,106.00 85.77,109.39 84.11,113.29 80.00,118.00 75.37,120.27 70.56,121.29 65.63,120.87 61.62,119.06 58.09,116.01 55.31,111.92 53.55,107.11 53.47,101.62 55.39,96.20 58.90,91.71 63.26,88.65 67.63,87.68 71.73,87.77 75.85,87.52 81.24,85.14"/>
    </edge>

    <junction id="4370324319" type="priority" x="81.24" y="85.14" incLanes="38014010_0" intLanes=":4370324319_0_0" shape="82.00,86.55 80.56,83.69 81.85,86.62">
        <request index="0" response="0" foes="0" cont="0"/>
    </junction>
    <junction id="446557694" type="priority" x="115.03" y="68.14" incLanes="25304430_0" intLanes=":446557694_0_0" shape="116.03,69.39 114.21,66.76 115.65,69.62 115.80,69.54 115.85,69.52 115.90,69.48">
        <request index="0" response="0" foes="0" cont="0"/>
    </junction>

    <connection from="25304430" to="38014010" fromLane="0" toLane="0" via=":446557694_0_0" dir="s" state="M"/>
    <connection from="38014010" to="25304430" fromLane="0" toLane="0" via=":4370324319_0_0" dir="s" state="M"/>

    <connection from=":4370324319_0" to="25304430" fromLane="0" toLane="0" dir="s" state="M"/>
    <connection from=":446557694_0" to="38014010" fromLane="0" toLane="0" dir="s" state="M"/>

</net>
