<?xml version="1.0" encoding="UTF-8"?>

<!-- generated on Tue 03 Dec 2019 15:22:40 GMT by Eclipse SUMO netedit Version 1.3.1
<configuration xmlns:xsi="http://www.w3.org/2001/XMLSchema-instance" xsi:noNamespaceSchemaLocation="http://sumo.dlr.de/xsd/netconvertConfiguration.xsd">

    <input>
        <sumo-net-file value="/home/benedikt/dev/DriveML/tracks/2lane_new_a/map.net.xml"/>
    </input>

    <output>
        <output-file value="/home/benedikt/dev/DriveML/tracks/2lane_new_a/map.net.xml"/>
    </output>

    <processing>
        <geometry.max-grade.fix value="false"/>
        <offset.disable-normalization value="true"/>
        <opposites.guess.fix-lengths value="true"/>
        <lefthand value="false"/>
    </processing>

    <junctions>
        <no-turnarounds value="true"/>
        <junctions.corner-detail value="5"/>
        <junctions.limit-turn-speed value="5.5"/>
        <rectangular-lane-cut value="false"/>
    </junctions>

    <pedestrian>
        <walkingareas value="false"/>
    </pedestrian>

</configuration>
-->

<net version="1.3" junctionCornerDetail="5" limitTurnSpeed="5.50" xmlns:xsi="http://www.w3.org/2001/XMLSchema-instance" xsi:noNamespaceSchemaLocation="http://sumo.dlr.de/xsd/net_file.xsd">

    <location netOffset="-630882.85,-4856133.12" convBoundary="-113.86,-156.49,414.37,322.54" origBoundary="-79.371708,43.846679,-79.369237,43.847436" projParameter="+proj=utm +zone=17 +ellps=WGS84 +datum=WGS84 +units=m +no_defs"/>

    <type id="highway.bridleway" priority="1" numLanes="1" speed="2.78" allow="pedestrian" oneway="1" width="2.00"/>
    <type id="highway.bus_guideway" priority="1" numLanes="1" speed="27.78" allow="bus" oneway="1"/>
    <type id="highway.cycleway" priority="1" numLanes="1" speed="8.33" allow="bicycle" oneway="0" width="1.00"/>
    <type id="highway.footway" priority="1" numLanes="1" speed="2.78" allow="pedestrian" oneway="1" width="2.00"/>
    <type id="highway.ford" priority="1" numLanes="1" speed="2.78" allow="army" oneway="0"/>
    <type id="highway.living_street" priority="2" numLanes="1" speed="2.78" disallow="tram rail_urban rail rail_electric ship" oneway="0"/>
    <type id="highway.motorway" priority="14" numLanes="2" speed="39.44" allow="private emergency authority army vip passenger hov taxi bus coach delivery truck trailer motorcycle evehicle custom1 custom2" oneway="1"/>
    <type id="highway.motorway_link" priority="9" numLanes="1" speed="22.22" allow="private emergency authority army vip passenger hov taxi bus coach delivery truck trailer motorcycle evehicle custom1 custom2" oneway="1"/>
    <type id="highway.path" priority="1" numLanes="1" speed="2.78" allow="pedestrian bicycle" oneway="1" width="2.00"/>
    <type id="highway.pedestrian" priority="1" numLanes="1" speed="2.78" allow="pedestrian" oneway="1" width="2.00"/>
    <type id="highway.primary" priority="12" numLanes="2" speed="27.78" disallow="tram rail_urban rail rail_electric ship" oneway="0"/>
    <type id="highway.primary_link" priority="7" numLanes="1" speed="22.22" disallow="tram rail_urban rail rail_electric ship" oneway="0"/>
    <type id="highway.raceway" priority="15" numLanes="2" speed="83.33" allow="vip" oneway="0"/>
    <type id="highway.residential" priority="3" numLanes="1" speed="13.89" disallow="tram rail_urban rail rail_electric ship" oneway="0"/>
    <type id="highway.secondary" priority="11" numLanes="2" speed="27.78" disallow="tram rail_urban rail rail_electric ship" oneway="0"/>
    <type id="highway.secondary_link" priority="6" numLanes="1" speed="22.22" disallow="tram rail_urban rail rail_electric ship" oneway="0"/>
    <type id="highway.service" priority="1" numLanes="1" speed="5.56" allow="pedestrian delivery bicycle" oneway="0"/>
    <type id="highway.stairs" priority="1" numLanes="1" speed="1.39" allow="pedestrian" oneway="1" width="2.00"/>
    <type id="highway.step" priority="1" numLanes="1" speed="1.39" allow="pedestrian" oneway="1" width="2.00"/>
    <type id="highway.steps" priority="1" numLanes="1" speed="1.39" allow="pedestrian" oneway="1" width="2.00"/>
    <type id="highway.tertiary" priority="10" numLanes="1" speed="22.22" disallow="tram rail_urban rail rail_electric ship" oneway="0"/>
    <type id="highway.tertiary_link" priority="5" numLanes="1" speed="22.22" disallow="tram rail_urban rail rail_electric ship" oneway="0"/>
    <type id="highway.track" priority="1" numLanes="1" speed="5.56" disallow="tram rail_urban rail rail_electric ship" oneway="0"/>
    <type id="highway.trunk" priority="13" numLanes="2" speed="27.78" disallow="pedestrian bicycle tram rail_urban rail rail_electric ship" oneway="0"/>
    <type id="highway.trunk_link" priority="8" numLanes="1" speed="22.22" disallow="pedestrian bicycle tram rail_urban rail rail_electric ship" oneway="0"/>
    <type id="highway.unclassified" priority="4" numLanes="1" speed="13.89" disallow="tram rail_urban rail rail_electric ship" oneway="0"/>
    <type id="highway.unsurfaced" priority="1" numLanes="1" speed="8.33" disallow="tram rail_urban rail rail_electric ship" oneway="0"/>
    <type id="railway.light_rail" priority="19" numLanes="1" speed="27.78" allow="rail_urban" oneway="1"/>
    <type id="railway.preserved" priority="16" numLanes="1" speed="27.78" allow="rail" oneway="1"/>
    <type id="railway.rail" priority="20" numLanes="1" speed="83.33" allow="rail rail_electric" oneway="1"/>
    <type id="railway.subway" priority="18" numLanes="1" speed="27.78" allow="rail_urban" oneway="1"/>
    <type id="railway.tram" priority="17" numLanes="1" speed="13.89" allow="tram" oneway="1"/>

    <edge id=":275632284_0" function="internal">
        <lane id=":275632284_0_0" index="0" disallow="tram rail_urban rail rail_electric rail_fast ship" speed="16.67" length="1.00" shape="75.90,64.20 75.75,64.23 75.66,64.26 75.56,64.31 75.44,64.39"/>
        <lane id=":275632284_0_1" index="1" disallow="tram rail_urban rail rail_electric rail_fast ship" speed="12.99" length="1.00" shape="75.14,61.09 74.71,61.20 74.42,61.29 74.15,61.43 73.76,61.66"/>
    </edge>
    <edge id=":4370324319_0" function="internal">
        <lane id=":4370324319_0_0" index="0" disallow="tram rail_urban rail rail_electric rail_fast ship" speed="16.67" length="0.23" shape="26.96,71.51 26.79,71.47"/>
        <lane id=":4370324319_0_1" index="1" disallow="tram rail_urban rail rail_electric rail_fast ship" speed="16.67" length="0.23" shape="27.74,68.41 27.46,68.34"/>
    </edge>

    <edge id="25304430" from="4370324319" to="275632284" priority="11" type="highway.secondary" spreadType="center" shape="27.24,69.93 17.10,67.77 8.77,69.56 4.39,75.90 2.55,82.81 -1.56,87.44 -9.32,87.98 -15.22,85.83 -19.54,80.51 -18.47,74.23 -15.94,70.29 -10.95,66.69 -4.63,64.31 2.65,65.12 7.46,62.74 8.94,57.86 6.64,52.67 2.45,45.33 0.22,39.25 -1.03,30.58 0.00,21.78 1.93,16.34 5.40,10.75 8.28,6.98 12.47,3.97 17.26,1.75 22.71,0.34 29.36,0.00 35.07,0.86 40.00,2.00 46.00,4.00 52.00,6.00 57.34,8.00 63.34,10.27 70.28,12.94 77.34,15.07 86.13,17.07 94.00,18.67 101.01,19.39 107.92,20.21 114.81,20.81 121.82,20.86 129.80,19.29 135.52,17.55 146.37,13.38 156.49,9.36 163.00,7.22 169.63,5.60 176.57,5.20 184.51,6.15 190.71,8.32 196.23,9.82 202.03,9.19 207.88,7.19 214.49,7.69 218.71,12.00 223.45,16.33 230.02,18.44 237.45,18.31 244.89,18.18 252.92,16.89 260.92,15.34 268.16,16.04 274.08,18.39 281.31,20.13 290.88,20.22 298.74,18.51 308.24,17.26 317.57,17.70 328.30,17.61 336.83,16.96 349.98,17.72 356.85,17.42 363.71,17.50 369.83,17.59 377.26,17.65 387.36,16.53 396.29,16.95 401.59,17.26 406.60,18.53 411.59,20.43 413.91,24.32 414.37,29.09 413.09,32.88 409.43,36.42 406.89,38.91 401.77,41.44 397.44,42.25 390.58,43.51 384.04,44.81 379.23,45.80 375.15,46.64 369.14,48.23 363.47,51.65 358.94,55.48 356.64,60.16 357.00,66.11 358.41,72.00 358.26,76.65 355.46,83.36 352.64,87.17 349.79,91.02 346.58,95.35 344.22,98.53 340.87,103.06 338.06,108.02 337.40,114.62 339.35,121.47 341.85,128.35 342.67,135.10 340.42,140.25 336.09,143.67 329.86,144.46 324.12,143.92 318.35,144.31 313.45,146.31 308.45,150.66 304.53,154.13 301.63,158.12 298.02,163.08 294.17,168.38 290.82,172.99 287.72,177.25 282.04,182.83 277.37,187.87 272.49,191.77 268.36,194.23 262.83,197.53 257.51,200.87 251.96,205.83 249.51,210.19 248.08,215.60 246.61,221.16 245.31,226.05 243.37,233.40 241.83,239.22 240.42,244.55 239.51,248.00 238.74,250.93 234.97,256.28 232.33,260.02 228.52,265.43 226.97,267.63 223.89,272.00 221.22,275.79 218.73,279.32 216.15,281.76 213.67,284.10 209.62,287.93 206.09,291.27 203.09,294.11 199.71,297.31 196.92,299.95 192.61,304.03 188.95,308.27 186.53,313.59 182.84,317.30 179.98,319.39 175.37,321.66 170.79,322.54 165.33,321.59 161.93,319.73 157.87,316.17 152.19,312.04 148.04,309.02 143.36,302.70 140.11,295.96 137.56,290.36 137.82,283.39 139.46,276.75 142.92,270.88 145.66,265.85 147.15,261.01 147.44,255.80 145.98,249.73 142.38,244.54 135.77,240.75 130.14,238.64 125.79,234.18 123.01,228.50 122.00,222.23 124.18,216.57 127.05,208.99 127.22,201.96 126.41,196.44 124.14,191.54 120.53,185.77 116.44,181.99 111.90,179.63 106.19,178.65 102.14,178.19 97.62,178.82 92.57,181.46 89.45,185.72 87.05,190.99 83.32,195.69 79.51,198.99 73.44,201.74 66.05,203.12 59.86,203.54 52.43,202.81 45.78,200.18 40.59,196.27 36.55,190.47 33.59,185.02 31.68,178.57 29.88,172.75 28.26,165.97 26.58,160.27 24.52,153.55 22.41,147.37 19.98,142.37 16.54,137.15 13.07,132.89 9.95,130.26 5.68,127.91 0.28,127.17 -4.75,127.56 -8.72,127.86 -15.18,128.06 -20.28,127.51 -25.79,125.87 -31.24,122.71 -33.85,119.36 -35.88,116.77 -37.56,113.36 -39.55,109.29 -42.48,103.31 -44.67,98.84 -46.93,94.22 -48.93,90.15 -51.52,84.86 -53.78,80.25 -55.91,76.28 -59.15,72.67 -62.42,69.13 -66.39,65.55 -70.61,64.10 -77.25,62.85 -83.93,64.76 -89.09,68.44 -90.94,74.36 -90.24,82.90 -89.56,88.14 -89.08,92.11 -88.55,96.46 -87.96,101.35 -87.27,107.09 -86.65,112.24 -86.10,116.74 -85.47,121.93 -83.54,125.66 -81.12,128.59 -77.49,130.87 -74.01,133.07 -69.13,135.25 -63.46,137.77 -57.78,140.30 -52.39,142.70 -45.87,145.60 -40.02,148.21 -33.73,150.60 -26.02,153.67 -22.70,154.87 -17.89,156.60 -13.29,157.21 -8.85,157.79 -0.78,158.37 6.03,161.04 10.80,164.56 14.68,168.44 16.40,173.07 15.38,178.25 12.38,182.83 8.18,184.89 1.93,187.22 -2.08,188.71 -7.35,190.67 -12.42,192.56 -19.72,193.61 -25.34,192.62 -31.31,189.77 -36.14,187.46 -42.32,184.51 -48.41,181.60 -54.66,178.61 -59.74,176.18 -65.24,173.56 -68.67,171.92 -74.34,169.21 -80.17,166.42 -85.26,163.99 -89.86,161.79 -96.11,158.80 -101.28,156.33 -107.47,152.38 -111.11,146.19 -113.54,140.24 -113.51,135.69 -113.49,132.36 -113.45,126.31 -113.41,120.57 -113.37,114.21 -113.33,108.02 -113.28,103.34 -113.21,95.64 -113.15,89.84 -113.09,83.52 -113.03,76.81 -113.01,69.68 -113.70,61.92 -113.86,55.12 -113.08,46.97 -111.26,39.84 -108.25,33.42 -104.72,27.77 -101.31,22.13 -97.05,16.51 -92.89,11.71 -87.23,7.08 -81.18,2.23 -75.01,-1.86 -68.48,-6.37 -63.11,-9.69 -57.96,-12.87 -52.65,-16.15 -47.25,-19.48 -41.04,-23.32 -35.97,-26.45 -31.76,-29.05 -25.76,-32.76 -20.00,-36.32 -15.57,-39.06 -12.63,-42.79 -8.86,-47.57 -5.35,-52.02 -0.87,-57.70 3.78,-63.60 7.75,-68.64 10.30,-72.86 13.07,-77.45 17.06,-84.04 21.01,-90.58 24.58,-96.50 28.62,-103.20 32.33,-109.33 36.43,-114.98 39.65,-119.92 43.20,-126.20 42.89,-133.29 41.46,-141.82 43.24,-148.53 49.31,-154.31 56.91,-155.77 64.89,-156.49 72.66,-153.37 77.56,-148.85 80.07,-140.66 76.21,-134.78 70.55,-131.26 62.31,-130.85 55.81,-128.64 50.95,-121.03 46.47,-113.57 43.94,-109.25 41.45,-105.00 38.93,-100.70 36.02,-95.74 33.33,-91.14 30.55,-86.04 28.36,-81.49 26.66,-77.95 25.59,-73.88 24.24,-68.74 22.44,-61.14 21.46,-54.05 19.62,-44.64 16.02,-36.41 11.71,-28.40 5.74,-23.19 -2.79,-19.57 -11.25,-17.89 -18.56,-14.86 -26.08,-8.64 -32.31,-2.35 -38.38,4.07 -42.97,10.53 -47.32,17.09 -51.89,23.92 -56.19,31.51 -58.23,39.84 -58.87,47.17 -57.89,54.33 -55.10,61.32 -52.11,67.33 -47.35,73.14 -40.65,81.28 -34.00,89.48 -27.63,96.47 -21.81,102.00 -14.33,107.13 -5.72,109.59 3.02,110.88 11.80,110.46 16.78,109.40 22.07,108.27 28.64,104.44 33.92,99.87 39.51,96.27 47.47,94.26 55.19,94.63 61.67,96.13 68.40,100.07 74.26,106.37 78.46,110.47 81.93,113.87 86.34,119.11 90.32,123.83 93.40,127.81 96.71,132.10 100.22,137.52 103.53,142.65 109.90,151.38 117.39,163.28 123.09,171.35 132.35,177.16 143.72,179.86 153.18,178.20 162.98,172.57 169.73,161.82 173.34,154.77 177.30,143.74 181.78,132.38 184.15,126.85 187.01,120.18 190.63,106.04 191.81,98.25 195.47,89.90 204.15,81.89 215.28,79.23 229.08,80.89 238.02,84.37 244.28,90.10 246.23,97.90 253.11,104.35 263.43,107.99 276.22,105.53 283.60,99.63 287.42,91.09 285.42,83.18 278.22,77.49 270.28,74.48 262.77,67.67 260.71,59.45 261.43,50.63 262.43,46.70 264.72,41.94 268.00,39.78 274.06,38.38 285.35,38.75 295.51,41.31 305.38,44.94 310.03,52.43 312.61,60.78 312.44,69.63 310.89,78.02 308.32,86.58 304.25,94.41 298.87,100.89 291.82,105.53 286.44,109.07 280.12,113.23 272.12,116.98 265.29,119.43 260.20,120.09 254.92,119.51 246.86,118.40 238.41,117.86 231.88,118.61 227.40,120.17 219.70,123.87 217.11,126.70 215.74,129.38 215.88,133.08 216.78,135.98 219.20,139.08 223.16,140.86 227.50,142.24 232.22,142.87 236.86,142.90 243.05,141.42 248.76,140.05 255.00,138.56 260.65,137.21 268.12,135.42 274.05,133.96 280.58,132.36 286.61,130.88 294.40,128.96 301.21,127.10 309.95,124.70 313.75,123.27 318.82,121.35 322.09,119.60 324.79,115.57 326.02,111.12 326.11,105.97 326.08,101.11 326.07,96.38 326.02,90.87 325.98,84.86 325.95,79.01 325.92,74.11 325.89,68.27 325.85,61.36 325.80,52.03 325.85,43.57 325.56,36.17 322.20,29.86 315.86,27.58 308.80,27.56 300.30,27.53 292.80,27.50 285.55,27.48 273.55,27.44 261.54,27.08 251.29,26.99 240.04,26.89 231.79,26.82 222.03,26.73 213.34,26.95 207.72,29.84 202.60,33.88 196.41,39.54 193.05,44.42 191.05,49.66 191.46,55.71 194.14,61.40 194.31,67.54 189.41,70.67 184.23,71.84 178.39,72.68 175.65,75.15 172.80,80.95 169.86,85.51 162.04,85.72 154.10,83.62 147.08,80.25 141.13,76.11 135.42,71.22 128.28,66.56 122.72,61.78 121.74,56.72 122.19,49.66 119.62,42.19 113.01,40.03 107.17,38.88 101.23,43.30 97.77,50.73 91.26,56.56 83.60,60.68 75.03,62.76">
        <lane id="25304430_0" index="0" disallow="tram rail_urban rail rail_electric rail_fast ship" speed="16.67" length="3750.45" shape="26.79,71.47 17.10,69.41 9.73,70.99 5.86,76.58 4.00,83.59 -0.80,88.99 -9.55,89.60 -16.18,87.18 -21.24,80.96 -19.99,73.64 -17.12,69.17 -11.71,65.27 -4.83,62.68 2.36,63.48 6.13,61.61 7.24,57.96 5.21,53.39 0.99,46.01 -1.34,39.64 -2.64,30.60 -1.57,21.41 0.48,15.64 4.08,9.84 7.15,5.82 11.66,2.58 16.72,0.24 22.47,-1.25 29.44,-1.61 35.37,-0.71 40.43,0.46 46.51,2.48 52.53,4.49 57.90,6.50 63.91,8.78 70.80,11.43 77.75,13.52 86.47,15.51 94.24,17.09 101.19,17.80 108.08,18.62 114.89,19.21 121.67,19.26 129.41,17.74 135.00,16.04 145.79,11.89 155.94,7.86 162.56,5.68 169.39,4.01 176.62,3.59 184.87,4.58 191.18,6.79 196.36,8.20 201.68,7.62 207.67,5.57 215.21,6.14 219.82,10.85 224.27,14.91 230.26,16.84 237.42,16.71 244.75,16.58 252.64,15.31 260.84,13.73 268.54,14.47 274.56,16.86 281.51,18.53 290.72,18.62 298.47,16.93 308.17,15.66 317.60,16.10 328.23,16.01 336.82,15.36 349.99,16.12 356.82,15.82 363.73,15.90 369.85,15.99 377.18,16.05 387.31,14.93 396.37,15.35 401.84,15.67 407.08,17.00 412.68,19.13 415.47,23.81 416.00,29.28 414.48,33.76 410.55,37.57 407.83,40.23 402.28,42.97 397.73,43.82 390.88,45.08 384.36,46.38 379.55,47.37 375.52,48.20 369.77,49.72 364.41,52.95 360.23,56.49 358.26,60.49 358.59,65.87 360.02,71.84 359.85,77.00 356.86,84.16 353.93,88.12 351.08,91.97 347.87,96.30 345.51,99.48 342.21,103.93 339.62,108.52 339.02,114.48 340.87,120.98 343.42,127.98 344.31,135.34 341.73,141.26 336.73,145.20 329.89,146.07 324.10,145.53 318.72,145.89 314.30,147.69 309.50,151.86 305.72,155.21 302.92,159.06 299.31,164.02 295.46,169.32 292.11,173.93 288.94,178.30 283.19,183.95 278.46,189.05 273.40,193.09 269.18,195.60 263.67,198.89 258.48,202.15 253.22,206.85 251.00,210.80 249.63,216.01 248.16,221.57 246.86,226.46 244.92,233.81 243.38,239.63 241.97,244.96 241.06,248.41 240.21,251.62 236.28,257.20 233.64,260.94 229.83,266.35 228.28,268.55 225.20,272.92 222.53,276.71 219.95,280.37 217.25,282.92 214.77,285.26 210.72,289.09 207.19,292.43 204.19,295.27 200.81,298.47 198.02,301.11 193.77,305.14 190.31,309.14 187.87,314.51 183.89,318.52 180.81,320.76 175.88,323.19 170.80,324.17 164.79,323.12 161.01,321.05 156.87,317.42 151.25,313.33 146.90,310.17 141.98,303.53 138.66,296.64 135.95,290.68 136.23,283.17 137.96,276.14 141.53,270.09 144.18,265.23 145.56,260.73 145.83,255.95 144.49,250.40 141.27,245.75 135.09,242.20 129.24,240.01 124.47,235.11 121.47,228.99 120.35,222.06 122.69,216.00 125.46,208.68 125.62,202.06 124.86,196.90 122.73,192.30 119.29,186.80 115.51,183.31 111.38,181.16 105.96,180.23 102.16,179.80 98.12,180.37 93.64,182.71 90.84,186.53 88.42,191.83 84.48,196.80 80.38,200.35 73.92,203.28 66.25,204.71 59.84,205.15 52.05,204.38 44.99,201.59 39.42,197.39 35.19,191.31 32.10,185.64 30.15,179.03 28.34,173.17 26.71,166.38 25.05,160.73 23.00,154.04 20.93,147.98 18.59,143.16 15.25,138.10 11.92,134.02 9.04,131.59 5.17,129.45 0.23,128.78 -4.63,129.16 -8.63,129.46 -15.24,129.66 -20.60,129.09 -26.43,127.35 -32.31,123.94 -35.11,120.34 -37.24,117.63 -39.00,114.06 -40.99,109.99 -43.92,104.01 -46.11,99.54 -48.37,94.92 -50.37,90.85 -52.96,85.56 -55.20,80.98 -57.23,77.21 -60.33,73.75 -63.55,70.27 -67.22,66.96 -71.02,65.65 -77.17,64.49 -83.23,66.22 -87.72,69.43 -89.32,74.54 -88.65,82.73 -87.97,87.94 -87.49,91.92 -86.96,96.27 -86.37,101.16 -85.68,106.90 -85.06,112.05 -84.51,116.55 -83.92,121.45 -82.20,124.77 -80.05,127.37 -76.64,129.52 -73.25,131.66 -68.48,133.79 -62.81,136.31 -57.13,138.84 -51.74,141.24 -45.22,144.14 -39.41,146.73 -33.15,149.11 -25.45,152.17 -22.16,153.36 -17.51,155.04 -13.08,155.62 -8.69,156.20 -0.42,156.79 6.81,159.63 11.85,163.34 16.06,167.56 18.06,172.94 16.89,178.87 13.48,184.07 8.81,186.36 2.49,188.72 -1.52,190.21 -6.79,192.17 -12.02,194.12 -19.75,195.23 -25.83,194.16 -32.00,191.21 -36.83,188.90 -43.01,185.95 -49.10,183.04 -55.35,180.05 -60.43,177.62 -65.93,175.00 -69.36,173.36 -75.03,170.65 -80.86,167.86 -85.95,165.43 -90.55,163.23 -96.80,160.24 -102.06,157.73 -108.65,153.52 -112.55,146.90 -115.14,140.55 -115.11,135.68 -115.09,132.35 -115.05,126.30 -115.01,120.56 -114.97,114.20 -114.93,108.01 -114.88,103.32 -114.81,95.62 -114.75,89.82 -114.69,83.51 -114.63,76.80 -114.61,69.75 -115.30,62.01 -115.46,55.06 -114.66,46.69 -112.77,39.30 -109.66,32.65 -106.08,26.93 -102.64,21.23 -98.29,15.50 -94.01,10.56 -88.24,5.84 -82.12,0.94 -75.91,-3.19 -69.36,-7.71 -63.95,-11.05 -58.80,-14.23 -53.49,-17.51 -48.09,-20.84 -41.88,-24.68 -36.81,-27.81 -32.60,-30.41 -26.60,-34.12 -20.84,-37.68 -16.65,-40.27 -13.89,-43.78 -10.12,-48.56 -6.61,-53.01 -2.13,-58.69 2.52,-64.59 6.43,-69.55 8.93,-73.69 11.70,-78.28 15.69,-84.87 19.64,-91.41 23.21,-97.33 27.25,-104.03 31.00,-110.22 35.11,-115.89 38.28,-120.75 41.58,-126.59 41.30,-133.12 39.82,-141.90 41.81,-149.38 48.55,-155.79 56.69,-157.36 65.13,-158.12 73.53,-154.75 78.96,-149.73 81.82,-140.41 77.35,-133.61 71.04,-129.68 62.61,-129.26 56.86,-127.31 52.31,-120.19 47.84,-112.75 45.32,-108.44 42.83,-104.19 40.31,-99.89 37.40,-94.93 34.72,-90.35 31.97,-85.31 29.80,-80.80 28.17,-77.40 27.14,-73.47 25.79,-68.35 24.01,-60.85 23.04,-53.79 21.16,-44.16 17.46,-35.71 12.98,-27.39 6.60,-21.82 -2.32,-18.03 -10.78,-16.35 -17.73,-13.47 -25.00,-7.46 -31.16,-1.24 -37.14,5.09 -41.65,11.44 -45.99,17.98 -50.53,24.76 -54.69,32.11 -56.65,40.10 -57.26,47.13 -56.33,53.92 -53.64,60.67 -50.76,66.46 -46.11,72.12 -39.41,80.27 -32.79,88.44 -26.49,95.35 -20.80,100.75 -13.64,105.66 -5.38,108.02 3.10,109.27 11.59,108.87 16.45,107.84 21.49,106.76 27.71,103.13 32.96,98.59 38.86,94.78 47.31,92.65 55.41,93.04 62.27,94.63 69.41,98.81 75.41,105.25 79.58,109.33 83.10,112.78 87.56,118.08 91.56,122.82 94.67,126.83 98.02,131.17 101.56,136.65 104.85,141.74 111.22,150.48 118.72,162.39 124.21,170.17 132.98,175.66 143.77,178.23 152.63,176.67 161.84,171.38 168.34,161.03 171.87,154.13 175.80,143.18 180.30,131.77 182.68,126.22 185.49,119.66 189.06,105.72 190.26,97.80 194.14,88.95 203.37,80.43 215.19,77.61 229.47,79.33 238.88,82.99 245.72,89.24 247.67,97.05 253.96,102.95 263.55,106.34 275.53,104.03 282.30,98.62 285.73,90.94 284.00,84.10 277.42,78.90 269.43,75.87 261.34,68.53 259.09,59.58 259.85,50.37 260.92,46.15 263.47,40.85 267.36,38.29 273.90,36.77 285.57,37.16 295.98,39.78 306.45,43.63 311.50,51.76 314.21,60.55 314.04,69.79 312.45,78.40 309.81,87.18 305.59,95.30 299.95,102.10 292.70,106.87 287.32,110.41 280.90,114.63 272.73,118.46 265.67,120.99 260.22,121.70 254.72,121.10 246.70,119.99 238.45,119.47 232.24,120.18 228.01,121.65 220.67,125.18 218.44,127.62 217.35,129.74 217.47,132.81 218.22,135.23 220.22,137.78 223.73,139.36 227.85,140.67 232.33,141.27 236.68,141.30 242.68,139.86 248.39,138.49 254.63,137.00 260.28,135.65 267.74,133.87 273.67,132.41 280.20,130.81 286.23,129.33 294.00,127.41 300.79,125.56 309.46,123.18 313.18,121.77 318.16,119.89 320.98,118.38 323.32,114.89 324.42,110.89 324.51,105.96 324.48,101.12 324.47,96.39 324.42,90.88 324.38,84.87 324.35,79.02 324.32,74.12 324.29,68.28 324.25,61.37 324.20,52.03 324.25,43.60 323.98,36.60 321.08,31.16 315.58,29.18 308.79,29.16 300.29,29.13 292.79,29.10 285.55,29.08 273.52,29.04 261.51,28.68 251.28,28.59 240.03,28.49 231.78,28.42 222.04,28.33 213.75,28.54 208.59,31.19 203.64,35.10 197.62,40.60 194.48,45.17 192.67,49.90 193.04,55.30 195.73,61.02 195.93,68.40 190.04,72.17 184.52,73.41 179.10,74.19 176.95,76.13 174.20,81.74 170.75,87.09 161.85,87.33 153.54,85.13 146.27,81.64 140.15,77.38 134.46,72.50 127.32,67.84 121.25,62.63 120.13,56.82 120.57,49.88 118.37,43.46 112.61,41.58 107.56,40.59 102.51,44.34 99.08,51.70 92.19,57.88 84.18,62.19 75.90,64.20"/>
        <lane id="25304430_1" index="1" disallow="tram rail_urban rail rail_electric rail_fast ship" speed="16.67" length="3750.45" shape="27.46,68.34 17.10,66.13 7.81,68.13 2.92,75.22 1.10,82.03 -2.32,85.89 -9.09,86.36 -14.26,84.48 -17.84,80.06 -16.95,74.82 -14.76,71.41 -10.19,68.11 -4.43,65.94 2.94,66.76 8.79,63.87 10.64,57.76 8.07,51.95 3.91,44.65 1.78,38.86 0.58,30.56 1.57,22.15 3.38,17.04 6.72,11.66 9.41,8.14 13.28,5.36 17.80,3.26 22.95,1.93 29.28,1.61 34.77,2.43 39.57,3.54 45.49,5.52 51.47,7.51 56.78,9.50 62.77,11.76 69.76,14.45 76.93,16.62 85.79,18.63 93.76,20.25 100.83,20.98 107.76,21.80 114.73,22.41 121.97,22.46 130.19,20.84 136.04,19.06 146.95,14.87 157.04,10.86 163.44,8.76 169.87,7.19 176.52,6.81 184.15,7.72 190.24,9.85 196.10,11.44 202.38,10.76 208.09,8.81 213.77,9.24 217.60,13.15 222.63,17.75 229.78,20.04 237.48,19.91 245.03,19.78 253.20,18.47 261.00,16.95 267.78,17.61 273.60,19.92 281.11,21.73 291.04,21.82 299.01,20.09 308.31,18.86 317.54,19.30 328.37,19.21 336.84,18.56 349.97,19.32 356.88,19.02 363.69,19.10 369.81,19.19 377.34,19.25 387.41,18.13 396.21,18.55 401.34,18.85 406.12,20.06 410.50,21.73 412.35,24.83 412.74,28.90 411.70,32.00 408.31,35.27 405.95,37.59 401.26,39.91 397.15,40.68 390.28,41.94 383.72,43.24 378.91,44.23 374.78,45.08 368.51,46.74 362.53,50.35 357.65,54.47 355.02,59.83 355.41,66.35 356.80,72.16 356.67,76.30 354.06,82.56 351.35,86.22 348.50,90.07 345.29,94.40 342.93,97.58 339.53,102.19 336.50,107.52 335.78,114.76 337.83,121.96 340.28,128.72 341.03,134.86 339.11,139.24 335.45,142.14 329.83,142.85 324.14,142.31 317.98,142.73 312.60,144.93 307.40,149.46 303.34,153.05 300.34,157.18 296.73,162.14 292.88,167.44 289.53,172.05 286.50,176.20 280.89,181.71 276.28,186.69 271.58,190.45 267.54,192.86 261.99,196.17 256.54,199.59 250.70,204.81 248.02,209.58 246.53,215.19 245.06,220.75 243.76,225.64 241.82,232.99 240.28,238.81 238.87,244.14 237.96,247.59 237.27,250.24 233.66,255.36 231.02,259.10 227.21,264.51 225.66,266.71 222.58,271.08 219.91,274.87 217.51,278.27 215.05,280.60 212.57,282.94 208.52,286.77 204.99,290.11 201.99,292.95 198.61,296.15 195.82,298.79 191.45,302.92 187.59,307.40 185.19,312.67 181.79,316.08 179.15,318.02 174.86,320.13 170.78,320.91 165.87,320.06 162.85,318.41 158.87,314.92 153.13,310.75 149.18,307.87 144.74,301.87 141.56,295.28 139.17,290.04 139.41,283.61 140.96,277.36 144.31,271.67 147.14,266.47 148.74,261.29 149.05,255.65 147.47,249.06 143.49,243.33 136.45,239.30 131.04,237.27 127.11,233.25 124.55,228.01 123.65,222.40 125.67,217.14 128.64,209.30 128.82,201.86 127.96,195.98 125.55,190.78 121.77,184.74 117.37,180.67 112.42,178.10 106.42,177.07 102.12,176.58 97.12,177.27 91.50,180.21 88.06,184.91 85.68,190.15 82.16,194.58 78.64,197.63 72.96,200.20 65.85,201.53 59.88,201.93 52.81,201.24 46.57,198.77 41.76,195.15 37.91,189.63 35.08,184.40 33.21,178.11 31.42,172.33 29.81,165.56 28.11,159.81 26.04,153.06 23.89,146.76 21.37,141.58 17.83,136.20 14.22,131.76 10.86,128.93 6.19,126.37 0.33,125.56 -4.87,125.96 -8.81,126.26 -15.12,126.46 -19.96,125.93 -25.15,124.39 -30.17,121.48 -32.59,118.38 -34.52,115.91 -36.12,112.66 -38.11,108.59 -41.04,102.61 -43.23,98.14 -45.49,93.52 -47.49,89.45 -50.08,84.16 -52.36,79.52 -54.59,75.35 -57.97,71.59 -61.29,67.99 -65.56,64.14 -70.20,62.55 -77.33,61.21 -84.63,63.30 -90.46,67.45 -92.56,74.18 -91.83,83.07 -91.15,88.34 -90.67,92.30 -90.14,96.65 -89.55,101.54 -88.86,107.28 -88.24,112.43 -87.69,116.93 -87.02,122.41 -84.88,126.55 -82.19,129.81 -78.34,132.22 -74.77,134.48 -69.78,136.71 -64.11,139.23 -58.43,141.76 -53.04,144.16 -46.52,147.06 -40.63,149.69 -34.31,152.09 -26.59,155.17 -23.24,156.38 -18.27,158.16 -13.50,158.80 -9.01,159.38 -1.14,159.95 5.25,162.45 9.75,165.78 13.30,169.32 14.74,173.20 13.87,177.63 11.28,181.59 7.55,183.42 1.37,185.72 -2.64,187.21 -7.91,189.17 -12.82,191.00 -19.69,191.99 -24.85,191.08 -30.62,188.33 -35.45,186.02 -41.63,183.07 -47.72,180.16 -53.97,177.17 -59.05,174.74 -64.55,172.12 -67.98,170.48 -73.65,167.77 -79.48,164.98 -84.57,162.55 -89.17,160.35 -95.42,157.36 -100.50,154.93 -106.29,151.24 -109.67,145.48 -111.94,139.93 -111.91,135.70 -111.89,132.37 -111.85,126.32 -111.81,120.58 -111.77,114.22 -111.73,108.03 -111.68,103.36 -111.61,95.66 -111.55,89.86 -111.49,83.53 -111.43,76.82 -111.41,69.61 -112.10,61.83 -112.26,55.18 -111.50,47.25 -109.75,40.38 -106.84,34.19 -103.36,28.61 -99.98,23.03 -95.81,17.52 -91.77,12.86 -86.22,8.32 -80.24,3.52 -74.11,-0.53 -67.60,-5.03 -62.27,-8.33 -57.12,-11.51 -51.81,-14.79 -46.41,-18.12 -40.20,-21.96 -35.13,-25.09 -30.92,-27.69 -24.92,-31.40 -19.16,-34.96 -14.49,-37.85 -11.37,-41.80 -7.60,-46.58 -4.09,-51.03 0.39,-56.71 5.04,-62.61 9.07,-67.73 11.67,-72.03 14.44,-76.62 18.43,-83.21 22.38,-89.75 25.95,-95.67 29.99,-102.37 33.66,-108.44 37.75,-114.07 41.02,-119.09 44.82,-125.81 44.48,-133.46 43.10,-141.74 44.67,-147.68 50.07,-152.83 57.13,-154.18 64.65,-154.86 71.79,-151.99 76.16,-147.97 78.32,-140.91 75.07,-135.95 70.06,-132.84 62.01,-132.44 54.76,-129.97 49.59,-121.87 45.10,-114.39 42.56,-110.06 40.07,-105.81 37.55,-101.51 34.64,-96.55 31.94,-91.93 29.13,-86.77 26.92,-82.18 25.15,-78.50 24.04,-74.29 22.69,-69.13 20.87,-61.43 19.88,-54.31 18.08,-45.12 14.58,-37.11 10.44,-29.41 4.88,-24.56 -3.26,-21.11 -11.72,-19.43 -19.39,-16.25 -27.16,-9.82 -33.46,-3.46 -39.62,3.05 -44.29,9.62 -48.65,16.20 -53.25,23.08 -57.69,30.91 -59.81,39.58 -60.48,47.21 -59.45,54.74 -56.56,61.97 -53.46,68.20 -48.59,74.16 -41.89,82.29 -35.21,90.52 -28.77,97.59 -22.82,103.25 -15.02,108.60 -6.06,111.16 2.94,112.49 12.01,112.05 17.11,110.96 22.65,109.78 29.57,105.75 34.88,101.15 40.16,97.76 47.63,95.87 54.97,96.22 61.07,97.63 67.39,101.33 73.11,107.49 77.34,111.61 80.76,114.96 85.12,120.14 89.08,124.84 92.13,128.79 95.40,133.03 98.88,138.39 102.21,143.56 108.58,152.28 116.06,164.17 121.97,172.53 131.72,178.66 143.67,181.49 153.73,179.73 164.12,173.76 171.12,162.61 174.81,155.41 178.80,144.30 183.26,132.99 185.62,127.48 188.53,120.70 192.20,106.36 193.36,98.70 196.80,90.85 204.93,83.35 215.37,80.85 228.69,82.45 237.16,85.75 242.84,90.96 244.79,98.75 252.26,105.75 263.31,109.64 276.91,107.03 284.90,100.64 289.11,91.24 286.84,82.26 279.02,76.08 271.13,73.09 264.20,66.81 262.33,59.32 263.01,50.89 263.94,47.25 265.97,43.03 268.64,41.27 274.22,39.99 285.13,40.34 295.04,42.84 304.31,46.25 308.56,53.10 311.01,61.01 310.84,69.47 309.33,77.64 306.83,85.98 302.91,93.52 297.79,99.68 290.94,104.19 285.56,107.73 279.34,111.83 271.51,115.50 264.91,117.87 260.18,118.48 255.12,117.92 247.02,116.81 238.37,116.25 231.52,117.04 226.79,118.69 218.73,122.56 215.78,125.78 214.13,129.02 214.29,133.35 215.34,136.73 218.18,140.38 222.59,142.36 227.15,143.81 232.11,144.47 237.04,144.50 243.42,142.98 249.13,141.61 255.37,140.12 261.02,138.77 268.50,136.97 274.43,135.51 280.96,133.91 286.99,132.43 294.80,130.51 301.63,128.64 310.44,126.22 314.32,124.77 319.48,122.81 323.20,120.82 326.26,116.25 327.62,111.35 327.71,105.98 327.68,101.10 327.67,96.37 327.62,90.86 327.58,84.85 327.55,79.00 327.52,74.10 327.49,68.26 327.45,61.35 327.40,52.03 327.45,43.54 327.14,35.74 323.32,28.56 316.14,25.98 308.81,25.96 300.31,25.93 292.81,25.90 285.55,25.88 273.58,25.84 261.57,25.48 251.30,25.39 240.05,25.29 231.80,25.22 222.02,25.13 212.93,25.36 206.85,28.49 201.56,32.66 195.20,38.48 191.62,43.67 189.43,49.42 189.88,56.12 192.55,61.78 192.69,66.68 188.78,69.17 183.94,70.27 177.68,71.17 174.35,74.17 171.40,80.16 168.97,83.93 162.23,84.11 154.66,82.11 147.89,78.86 142.11,74.84 136.38,69.94 129.24,65.28 124.19,60.93 123.35,56.62 123.81,49.44 120.87,40.92 113.41,38.48 106.78,37.17 99.95,42.26 96.46,49.76 90.33,55.24 83.02,59.17 75.14,61.09"/>
    </edge>
    <edge id="25304432" from="275632284" to="4370324319" priority="11" type="highway.secondary" spreadType="center" shape="75.03,62.76 68.59,66.71 65.44,71.06 64.09,75.32 62.06,78.69 57.70,82.04 51.36,82.05 45.26,79.98 41.08,76.58 35.24,71.95 27.24,69.93">
        <lane id="25304432_0" index="0" disallow="tram rail_urban rail rail_electric rail_fast ship" speed="16.67" length="60.08" shape="75.44,64.39 69.70,67.91 66.89,71.79 65.56,75.98 63.27,79.77 58.24,83.64 51.10,83.65 44.47,81.40 40.08,77.83 34.52,73.42 26.96,71.51"/>