<?xml version="1.0" encoding="UTF-8"?>

<!-- generated on Tue 03 Dec 2019 14:46:59 GMT by Eclipse SUMO netedit Version 1.3.1
<configuration xmlns:xsi="http://www.w3.org/2001/XMLSchema-instance" xsi:noNamespaceSchemaLocation="http://sumo.dlr.de/xsd/netconvertConfiguration.xsd">

    <input>
        <sumo-net-file value="/home/justin941208/PhD/DriveML/dataset_public/2lane/map.net.xml"/>
    </input>

    <output>
        <output-file value="/home/justin941208/PhD/DriveML/dataset_public/2lane/map.net.xml"/>
    </output>

    <processing>
        <geometry.max-grade.fix value="false"/>
        <offset.disable-normalization value="true"/>
        <opposites.guess.fix-lengths value="true"/>
        <lefthand value="false"/>
    </processing>

    <junctions>
        <no-turnarounds value="true"/>
        <junctions.corner-detail value="5"/>
        <junctions.limit-turn-speed value="5.5"/>
        <rectangular-lane-cut value="false"/>
    </junctions>

    <pedestrian>
        <walkingareas value="false"/>
    </pedestrian>

</configuration>
-->

<net version="1.3" junctionCornerDetail="5" limitTurnSpeed="5.50" xmlns:xsi="http://www.w3.org/2001/XMLSchema-instance" xsi:noNamespaceSchemaLocation="http://sumo.dlr.de/xsd/net_file.xsd">

    <location netOffset="-630882.85,-4856133.12" convBoundary="-1.03,0.00,199.87,85.72" origBoundary="-79.371708,43.846679,-79.369237,43.847436" projParameter="+proj=utm +zone=17 +ellps=WGS84 +datum=WGS84 +units=m +no_defs"/>

    <type id="highway.bridleway" priority="1" numLanes="1" speed="2.78" allow="pedestrian" oneway="1" width="2.00"/>
    <type id="highway.bus_guideway" priority="1" numLanes="1" speed="27.78" allow="bus" oneway="1"/>
    <type id="highway.cycleway" priority="1" numLanes="1" speed="8.33" allow="bicycle" oneway="0" width="1.00"/>
    <type id="highway.footway" priority="1" numLanes="1" speed="2.78" allow="pedestrian" oneway="1" width="2.00"/>
    <type id="highway.ford" priority="1" numLanes="1" speed="2.78" allow="army" oneway="0"/>
    <type id="highway.living_street" priority="2" numLanes="1" speed="2.78" disallow="tram rail_urban rail rail_electric ship" oneway="0"/>
    <type id="highway.motorway" priority="14" numLanes="2" speed="39.44" allow="private emergency authority army vip passenger hov taxi bus coach delivery truck trailer motorcycle evehicle custom1 custom2" oneway="1"/>
    <type id="highway.motorway_link" priority="9" numLanes="1" speed="22.22" allow="private emergency authority army vip passenger hov taxi bus coach delivery truck trailer motorcycle evehicle custom1 custom2" oneway="1"/>
    <type id="highway.path" priority="1" numLanes="1" speed="2.78" allow="pedestrian bicycle" oneway="1" width="2.00"/>
    <type id="highway.pedestrian" priority="1" numLanes="1" speed="2.78" allow="pedestrian" oneway="1" width="2.00"/>
    <type id="highway.primary" priority="12" numLanes="2" speed="27.78" disallow="tram rail_urban rail rail_electric ship" oneway="0"/>
    <type id="highway.primary_link" priority="7" numLanes="1" speed="22.22" disallow="tram rail_urban rail rail_electric ship" oneway="0"/>
    <type id="highway.raceway" priority="15" numLanes="2" speed="83.33" allow="vip" oneway="0"/>
    <type id="highway.residential" priority="3" numLanes="1" speed="13.89" disallow="tram rail_urban rail rail_electric ship" oneway="0"/>
    <type id="highway.secondary" priority="11" numLanes="2" speed="27.78" disallow="tram rail_urban rail rail_electric ship" oneway="0"/>
    <type id="highway.secondary_link" priority="6" numLanes="1" speed="22.22" disallow="tram rail_urban rail rail_electric ship" oneway="0"/>
    <type id="highway.service" priority="1" numLanes="1" speed="5.56" allow="pedestrian delivery bicycle" oneway="0"/>
    <type id="highway.stairs" priority="1" numLanes="1" speed="1.39" allow="pedestrian" oneway="1" width="2.00"/>
    <type id="highway.step" priority="1" numLanes="1" speed="1.39" allow="pedestrian" oneway="1" width="2.00"/>
    <type id="highway.steps" priority="1" numLanes="1" speed="1.39" allow="pedestrian" oneway="1" width="2.00"/>
    <type id="highway.tertiary" priority="10" numLanes="1" speed="22.22" disallow="tram rail_urban rail rail_electric ship" oneway="0"/>
    <type id="highway.tertiary_link" priority="5" numLanes="1" speed="22.22" disallow="tram rail_urban rail rail_electric ship" oneway="0"/>
    <type id="highway.track" priority="1" numLanes="1" speed="5.56" disallow="tram rail_urban rail rail_electric ship" oneway="0"/>
    <type id="highway.trunk" priority="13" numLanes="2" speed="27.78" disallow="pedestrian bicycle tram rail_urban rail rail_electric ship" oneway="0"/>
    <type id="highway.trunk_link" priority="8" numLanes="1" speed="22.22" disallow="pedestrian bicycle tram rail_urban rail rail_electric ship" oneway="0"/>
    <type id="highway.unclassified" priority="4" numLanes="1" speed="13.89" disallow="tram rail_urban rail rail_electric ship" oneway="0"/>
    <type id="highway.unsurfaced" priority="1" numLanes="1" speed="8.33" disallow="tram rail_urban rail rail_electric ship" oneway="0"/>
    <type id="railway.light_rail" priority="19" numLanes="1" speed="27.78" allow="rail_urban" oneway="1"/>
    <type id="railway.preserved" priority="16" numLanes="1" speed="27.78" allow="rail" oneway="1"/>
    <type id="railway.rail" priority="20" numLanes="1" speed="83.33" allow="rail rail_electric" oneway="1"/>
    <type id="railway.subway" priority="18" numLanes="1" speed="27.78" allow="rail_urban" oneway="1"/>
    <type id="railway.tram" priority="17" numLanes="1" speed="13.89" allow="tram" oneway="1"/>

    <edge id=":4370324319_0" function="internal">
        <lane id=":4370324319_0_0" index="0" disallow="tram rail_urban rail rail_electric rail_fast ship" speed="16.67" length="0.92" shape="27.30,71.59 26.90,71.49 26.63,71.40 26.38,71.28 26.02,71.07"/>
        <lane id=":4370324319_0_1" index="1" disallow="tram rail_urban rail rail_electric rail_fast ship" speed="16.67" length="0.92" shape="28.08,68.49 27.95,68.46 27.86,68.43 27.78,68.39 27.66,68.32"/>
    </edge>
    <edge id=":4370324323_0" function="internal">
        <lane id=":4370324323_0_0" index="0" disallow="tram rail_urban rail rail_electric rail_fast ship" speed="16.67" length="0.32" shape="129.33,17.75 129.38,17.74 129.41,17.73 129.44,17.73 129.49,17.71"/>
        <lane id=":4370324323_0_1" index="1" disallow="tram rail_urban rail rail_electric rail_fast ship" speed="16.67" length="0.32" shape="129.95,20.89 130.09,20.86 130.19,20.84 130.28,20.82 130.42,20.77"/>
    </edge>

    <edge id="25304432" from="4370324323" to="4370324319" priority="11" type="highway.secondary" spreadType="center" shape="129.80,19.29 135.52,17.55 146.37,13.38 156.49,9.36 163.00,7.22 169.63,5.60 176.57,5.20 184.51,6.15 190.71,8.32 195.32,11.87 197.71,16.47 199.76,22.79 199.87,31.83 198.23,41.81 194.89,52.90 191.31,62.79 188.16,69.42 184.98,75.09 181.01,79.54 176.18,83.20 169.86,85.51 162.04,85.72 154.10,83.62 147.08,80.25 141.13,76.11 135.42,71.22 128.28,66.56 116.72,62.28 101.98,59.30 90.60,59.65 83.60,60.68 72.11,64.04 61.12,68.25 50.22,71.18 42.58,72.26 34.33,71.72 27.24,69.93">
        <lane id="25304432_0" index="0" disallow="tram rail_urban rail rail_electric rail_fast ship" speed="16.67" length="305.82" shape="129.49,17.71 135.00,16.04 145.79,11.89 155.94,7.86 162.56,5.68 169.39,4.01 176.62,3.59 184.87,4.58 191.48,6.90 196.58,10.82 199.19,15.85 201.36,22.53 201.47,31.95 199.79,42.17 196.41,53.40 192.79,63.41 189.58,70.16 186.29,76.02 182.10,80.72 176.95,84.62 170.16,87.10 161.85,87.33 153.54,85.13 146.27,81.64 140.15,77.38 134.46,72.50 127.56,68.00 116.28,63.82 101.84,60.90 90.74,61.25 83.94,62.25 72.62,65.56 61.62,69.77 50.54,72.75 42.64,73.87 34.08,73.31 27.30,71.59"/>
        <lane id="25304432_1" index="1" disallow="tram rail_urban rail rail_electric rail_fast ship" speed="16.67" length="305.82" shape="130.42,20.77 136.04,19.06 146.95,14.87 157.04,10.86 163.44,8.76 169.87,7.19 176.52,6.81 184.15,7.72 189.94,9.74 194.06,12.92 196.23,17.09 198.16,23.05 198.27,31.71 196.67,41.45 193.37,52.40 189.83,62.17 186.74,68.68 183.67,74.16 179.92,78.36 175.41,81.78 169.56,83.92 162.23,84.11 154.66,82.11 147.89,78.86 142.11,74.84 136.38,69.94 129.00,65.12 117.16,60.74 102.12,57.70 90.46,58.05 83.26,59.11 71.60,62.52 60.62,66.73 49.90,69.61 42.52,70.65 34.58,70.13 28.08,68.49"/>
    </edge>
    <edge id="38014010" from="4370324319" to="4370324323" priority="11" type="highway.secondary" spreadType="center" shape="27.24,69.93 18.24,64.59 12.19,59.36 6.64,52.67 2.45,45.33 0.22,39.25 -1.03,30.58 0.00,21.78 1.93,16.34 5.40,10.75 8.28,6.98 12.47,3.97 17.26,1.75 22.71,0.34 29.36,0.00 35.07,0.86 40.00,2.00 46.00,4.00 52.00,6.00 57.34,8.00 63.34,10.27 70.28,12.94 77.34,15.07 86.13,17.07 94.00,18.67 101.01,19.39 107.92,20.21 114.81,20.81 121.82,20.86 129.80,19.29">
        <lane id="38014010_0" index="0" disallow="tram rail_urban rail rail_electric rail_fast ship" speed="16.67" length="202.42" shape="26.02,71.07 17.30,65.89 11.04,60.48 5.32,53.58 0.99,46.01 -1.34,39.64 -2.64,30.60 -1.57,21.41 0.48,15.64 4.08,9.84 7.15,5.82 11.66,2.58 16.72,0.24 22.47,-1.25 29.44,-1.61 35.37,-0.71 40.43,0.46 46.51,2.48 52.53,4.49 57.90,6.50 63.91,8.78 70.80,11.43 77.75,13.52 86.47,15.51 94.24,17.09 101.19,17.80 108.08,18.62 114.89,19.21 121.67,19.26 129.33,17.75"/>
        <lane id="38014010_1" index="1" disallow="tram rail_urban rail rail_electric rail_fast ship" speed="16.67" length="202.42" shape="27.66,68.32 19.18,63.29 13.34,58.24 7.96,51.76 3.91,44.65 1.78,38.86 0.58,30.56 1.57,22.15 3.38,17.04 6.72,11.66 9.41,8.14 13.28,5.36 17.80,3.26 22.95,1.93 29.28,1.61 34.77,2.43 39.57,3.54 45.49,5.52 51.47,7.51 56.78,9.50 62.77,11.76 69.76,14.45 76.93,16.62 85.79,18.63 93.76,20.25 100.83,20.98 107.76,21.80 114.73,22.41 121.97,22.46 129.95,20.89"/>
    </edge>

    <junction id="4370324319" type="priority" x="27.24" y="69.93" incLanes="25304432_0 25304432_1" intLanes=":4370324319_0_0 :4370324319_0_1" shape="26.91,73.15 28.47,66.94 25.21,72.45 25.80,72.79 26.02,72.89 26.25,72.97 26.53,73.05">
        <request index="0" response="00" foes="00" cont="0"/>
        <request index="1" response="00" foes="00" cont="0"/>
    </junction>
    <junction id="4370324323" type="priority" x="129.80" y="19.29" incLanes="38014010_0 38014010_1" intLanes=":4370324323_0_0 :4370324323_0_1" shape="130.89,22.30 129.02,16.18 130.26,22.46 130.49,22.41 130.58,22.39 130.66,22.37">
        <request index="0" response="00" foes="00" cont="0"/>
        <request index="1" response="00" foes="00" cont="0"/>
    </junction>

    <connection from="25304432" to="38014010" fromLane="0" toLane="0" via=":4370324319_0_0" dir="s" state="M"/>
    <connection from="25304432" to="38014010" fromLane="1" toLane="1" via=":4370324319_0_1" dir="s" state="M"/>
    <connection from="38014010" to="25304432" fromLane="0" toLane="0" via=":4370324323_0_0" dir="s" state="M"/>
    <connection from="38014010" to="25304432" fromLane="1" toLane="1" via=":4370324323_0_1" dir="s" state="M"/>

    <connection from=":4370324319_0" to="38014010" fromLane="0" toLane="0" dir="s" state="M"/>
    <connection from=":4370324319_0" to="38014010" fromLane="1" toLane="1" dir="s" state="M"/>
    <connection from=":4370324323_0" to="25304432" fromLane="0" toLane="0" dir="s" state="M"/>
    <connection from=":4370324323_0" to="25304432" fromLane="1" toLane="1" dir="s" state="M"/>

</net>
