<?xml version="1.0" encoding="UTF-8"?>

<!-- generated on Tue 03 Dec 2019 16:24:31 GMT by Eclipse SUMO netedit Version 1.3.1
<configuration xmlns:xsi="http://www.w3.org/2001/XMLSchema-instance" xsi:noNamespaceSchemaLocation="http://sumo.dlr.de/xsd/netconvertConfiguration.xsd">

    <input>
        <sumo-net-file value="/home/benedikt/dev/DriveML/tracks/2lane_new_c_bwd/map.net.xml"/>
    </input>

    <output>
        <output-file value="/home/benedikt/dev/DriveML/tracks/2lane_new_c_bwd/map.net.xml"/>
    </output>

    <processing>
        <geometry.max-grade.fix value="false"/>
        <offset.disable-normalization value="true"/>
        <opposites.guess.fix-lengths value="true"/>
        <lefthand value="false"/>
    </processing>

    <junctions>
        <no-turnarounds value="true"/>
        <junctions.corner-detail value="5"/>
        <junctions.limit-turn-speed value="5.5"/>
        <rectangular-lane-cut value="false"/>
    </junctions>

    <pedestrian>
        <walkingareas value="false"/>
    </pedestrian>

</configuration>
-->

<net version="1.3" junctionCornerDetail="5" limitTurnSpeed="5.50" xmlns:xsi="http://www.w3.org/2001/XMLSchema-instance" xsi:noNamespaceSchemaLocation="http://sumo.dlr.de/xsd/net_file.xsd">

    <location netOffset="-630882.85,-4856133.12" convBoundary="-198.19,-117.82,200.00,301.51" origBoundary="-79.371708,43.846679,-79.369237,43.847436" projParameter="+proj=utm +zone=17 +ellps=WGS84 +datum=WGS84 +units=m +no_defs"/>

    <type id="highway.bridleway" priority="1" numLanes="1" speed="2.78" allow="pedestrian" oneway="1" width="2.00"/>
    <type id="highway.bus_guideway" priority="1" numLanes="1" speed="27.78" allow="bus" oneway="1"/>
    <type id="highway.cycleway" priority="1" numLanes="1" speed="8.33" allow="bicycle" oneway="0" width="1.00"/>
    <type id="highway.footway" priority="1" numLanes="1" speed="2.78" allow="pedestrian" oneway="1" width="2.00"/>
    <type id="highway.ford" priority="1" numLanes="1" speed="2.78" allow="army" oneway="0"/>
    <type id="highway.living_street" priority="2" numLanes="1" speed="2.78" disallow="tram rail_urban rail rail_electric ship" oneway="0"/>
    <type id="highway.motorway" priority="14" numLanes="2" speed="39.44" allow="private emergency authority army vip passenger hov taxi bus coach delivery truck trailer motorcycle evehicle custom1 custom2" oneway="1"/>
    <type id="highway.motorway_link" priority="9" numLanes="1" speed="22.22" allow="private emergency authority army vip passenger hov taxi bus coach delivery truck trailer motorcycle evehicle custom1 custom2" oneway="1"/>
    <type id="highway.path" priority="1" numLanes="1" speed="2.78" allow="pedestrian bicycle" oneway="1" width="2.00"/>
    <type id="highway.pedestrian" priority="1" numLanes="1" speed="2.78" allow="pedestrian" oneway="1" width="2.00"/>
    <type id="highway.primary" priority="12" numLanes="2" speed="27.78" disallow="tram rail_urban rail rail_electric ship" oneway="0"/>
    <type id="highway.primary_link" priority="7" numLanes="1" speed="22.22" disallow="tram rail_urban rail rail_electric ship" oneway="0"/>
    <type id="highway.raceway" priority="15" numLanes="2" speed="83.33" allow="vip" oneway="0"/>
    <type id="highway.residential" priority="3" numLanes="1" speed="13.89" disallow="tram rail_urban rail rail_electric ship" oneway="0"/>
    <type id="highway.secondary" priority="11" numLanes="2" speed="27.78" disallow="tram rail_urban rail rail_electric ship" oneway="0"/>
    <type id="highway.secondary_link" priority="6" numLanes="1" speed="22.22" disallow="tram rail_urban rail rail_electric ship" oneway="0"/>
    <type id="highway.service" priority="1" numLanes="1" speed="5.56" allow="pedestrian delivery bicycle" oneway="0"/>
    <type id="highway.stairs" priority="1" numLanes="1" speed="1.39" allow="pedestrian" oneway="1" width="2.00"/>
    <type id="highway.step" priority="1" numLanes="1" speed="1.39" allow="pedestrian" oneway="1" width="2.00"/>
    <type id="highway.steps" priority="1" numLanes="1" speed="1.39" allow="pedestrian" oneway="1" width="2.00"/>
    <type id="highway.tertiary" priority="10" numLanes="1" speed="22.22" disallow="tram rail_urban rail rail_electric ship" oneway="0"/>
    <type id="highway.tertiary_link" priority="5" numLanes="1" speed="22.22" disallow="tram rail_urban rail rail_electric ship" oneway="0"/>
    <type id="highway.track" priority="1" numLanes="1" speed="5.56" disallow="tram rail_urban rail rail_electric ship" oneway="0"/>
    <type id="highway.trunk" priority="13" numLanes="2" speed="27.78" disallow="pedestrian bicycle tram rail_urban rail rail_electric ship" oneway="0"/>
    <type id="highway.trunk_link" priority="8" numLanes="1" speed="22.22" disallow="pedestrian bicycle tram rail_urban rail rail_electric ship" oneway="0"/>
    <type id="highway.unclassified" priority="4" numLanes="1" speed="13.89" disallow="tram rail_urban rail rail_electric ship" oneway="0"/>
    <type id="highway.unsurfaced" priority="1" numLanes="1" speed="8.33" disallow="tram rail_urban rail rail_electric ship" oneway="0"/>
    <type id="railway.light_rail" priority="19" numLanes="1" speed="27.78" allow="rail_urban" oneway="1"/>
    <type id="railway.preserved" priority="16" numLanes="1" speed="27.78" allow="rail" oneway="1"/>
    <type id="railway.rail" priority="20" numLanes="1" speed="83.33" allow="rail rail_electric" oneway="1"/>
    <type id="railway.subway" priority="18" numLanes="1" speed="27.78" allow="rail_urban" oneway="1"/>
    <type id="railway.tram" priority="17" numLanes="1" speed="13.89" allow="tram" oneway="1"/>

    <edge id=":4370324319_0" function="internal">
        <lane id=":4370324319_0_0" index="0" disallow="tram rail_urban rail rail_electric rail_fast ship" speed="16.67" length="0.28" shape="57.05,148.79 57.23,148.97"/>
        <lane id=":4370324319_0_1" index="1" disallow="tram rail_urban rail rail_electric rail_fast ship" speed="16.67" length="0.28" shape="54.75,151.01 54.97,151.23"/>
    </edge>
    <edge id=":446557694_0" function="internal">
        <lane id=":446557694_0_0" index="0" disallow="tram rail_urban rail rail_electric rail_fast ship" speed="12.93" length="1.00" shape="-49.69,38.35 -49.30,38.57 -49.04,38.73 -48.81,38.93 -48.50,39.25"/>
        <lane id=":446557694_0_1" index="1" disallow="tram rail_urban rail rail_electric rail_fast ship" speed="16.67" length="1.00" shape="-51.20,41.17 -51.07,41.24 -50.98,41.30 -50.91,41.37 -50.80,41.47"/>
    </edge>

    <edge id="25304430" from="446557694" to="4370324319" priority="11" type="highway.secondary" spreadType="center">
        <lane id="25304430_0" index="0" disallow="tram rail_urban rail rail_electric rail_fast ship" speed="16.67" length="152.12" shape="-48.50,39.25 57.05,148.79"/>
        <lane id="25304430_1" index="1" disallow="tram rail_urban rail rail_electric rail_fast ship" speed="16.67" length="152.12" shape="-50.80,41.47 54.75,151.01"/>
    </edge>
    <edge id="38014010" from="4370324319" to="446557694" priority="11" type="highway.secondary" spreadType="center" shape="56.00,150.00 64.00,158.00 72.00,162.00 78.04,163.11 84.00,162.00 90.22,157.78 94.36,152.44 96.00,146.00 95.86,139.76 94.00,134.00 88.00,126.00 83.98,122.64 78.00,118.00 71.83,114.80 64.74,112.30 58.70,110.33 52.30,107.55 46.67,103.48 41.35,97.51 20.33,65.44 18.00,58.00 18.00,50.00 21.64,44.36 28.00,40.18 35.91,39.64 43.19,41.37 67.98,55.08 74.90,56.99 82.00,56.00 88.58,53.08 95.05,47.60 108.34,34.49 116.00,30.00 126.00,26.00 134.16,24.26 141.71,23.74 148.00,24.00 153.13,25.73 158.51,28.21 163.21,30.92 168.40,34.13 174.13,37.87 180.00,40.00 186.00,40.00 192.00,38.00 196.00,34.00 199.28,28.96 200.00,22.00 198.00,16.00 195.32,11.87 190.71,8.32 186.00,6.00 178.12,4.72 170.00,4.00 -30.00,4.00 -44.00,4.00 -52.00,7.56 -60.71,9.03 -70.04,5.51 -119.72,-55.15 -122.61,-62.37 -123.60,-69.33 -120.95,-76.57 -112.06,-87.37 -105.66,-95.43 -103.34,-103.30 -108.07,-112.94 -115.00,-117.82 -124.20,-116.59 -184.25,-90.93 -196.26,-76.07 -198.19,-55.26 -194.29,-36.09 -183.95,-19.34 -166.27,-7.13 -151.63,1.14 -143.43,11.18 -139.83,27.52 -141.03,37.86 -144.62,48.59 -146.94,56.26 -146.13,65.18 -130.93,122.45 -128.94,133.74 -125.36,142.94 -120.11,148.16 -112.34,153.23 -105.26,158.10 -99.77,165.35 -69.09,231.38 -35.73,285.96 -16.95,297.12 10.73,301.51 36.74,299.77 60.58,286.90 71.17,265.95 66.07,243.76 50.71,231.41 29.86,225.03 10.05,224.61 -1.95,227.53 -9.43,234.80 -9.37,243.59 -2.93,249.95 8.04,250.06 14.92,246.34 22.98,242.77 34.48,243.41 45.41,249.93 43.96,264.68 33.99,274.28 14.21,278.89 -3.80,273.67 -19.47,265.34 -27.80,242.67 -24.90,224.81 -15.16,211.40 -4.39,202.97 11.17,197.92 17.38,197.19 24.41,197.63 30.11,199.98 34.12,203.11 39.47,205.95 46.85,205.25 51.49,200.34 53.13,194.41 50.05,188.66 45.80,183.42 38.91,182.24 25.46,182.92 14.13,178.19 5.53,169.59 2.82,161.19 4.24,152.63 9.75,144.30 12.66,136.23 11.99,129.65 5.42,123.50 -1.26,120.94 -8.63,120.86 -18.99,124.00 -29.68,122.29 -39.17,117.12 -45.65,108.46 -48.25,100.10 -48.68,91.47 -47.10,83.37 -47.19,74.95 -50.66,67.66 -57.14,63.30 -64.74,61.63 -70.34,62.03 -78.41,64.20 -87.37,63.99 -94.16,58.25 -96.35,45.67 -91.81,36.59 -79.66,30.99 -69.12,31.88 -60.43,34.42 -50.00,40.00">
        <lane id="38014010_0" index="0" disallow="tram rail_urban rail rail_electric rail_fast ship" speed="16.67" length="2198.47" shape="57.23,148.97 64.95,156.69 72.51,160.47 78.04,161.48 83.38,160.49 89.11,156.60 92.89,151.72 94.40,145.82 94.27,140.03 92.56,134.75 86.83,127.11 82.98,123.89 77.13,119.35 71.19,116.27 64.23,113.82 58.13,111.83 51.50,108.95 45.59,104.67 40.08,98.49 18.87,66.13 16.40,58.24 16.40,49.53 20.48,43.21 27.47,38.61 36.04,38.03 43.77,39.86 68.59,53.59 75.01,55.36 81.56,54.45 87.72,51.71 93.97,46.42 107.36,33.21 115.29,28.56 125.53,24.46 133.94,22.67 141.69,22.14 148.29,22.41 153.72,24.24 159.25,26.79 164.03,29.55 169.26,32.78 174.85,36.43 180.28,38.40 185.74,38.40 191.14,36.60 194.75,32.99 197.73,28.41 198.37,22.18 196.55,16.70 194.13,12.97 189.86,9.68 185.51,7.54 177.92,6.31 169.93,5.60 -30.00,5.60 -43.66,5.60 -51.53,9.10 -60.87,10.68 -71.01,6.86 -121.11,-54.33 -124.17,-61.95 -125.24,-69.50 -122.36,-77.38 -113.30,-88.38 -107.11,-96.18 -105.05,-103.15 -109.33,-111.87 -115.41,-116.15 -123.77,-115.03 -183.26,-89.61 -194.71,-75.44 -196.58,-55.35 -192.78,-36.69 -182.76,-20.47 -165.42,-8.49 -150.58,-0.11 -141.95,10.46 -138.21,27.44 -139.46,38.21 -143.10,49.08 -145.32,56.43 -144.55,64.90 -129.37,122.11 -127.39,133.31 -123.99,142.04 -119.10,146.91 -111.45,151.90 -104.14,156.93 -98.39,164.52 -67.68,230.62 -34.57,284.79 -16.40,295.59 10.80,299.90 36.29,298.20 59.38,285.73 69.48,265.74 64.63,244.66 49.95,232.85 29.60,226.62 10.23,226.21 -1.15,228.98 -7.83,235.47 -7.77,242.92 -2.27,248.36 7.64,248.46 14.21,244.90 22.68,241.15 34.96,241.83 47.10,249.08 45.49,265.42 34.78,275.74 14.17,280.54 -4.40,275.16 -20.76,266.47 -29.45,242.83 -26.42,224.18 -16.32,210.28 -5.15,201.54 10.83,196.35 17.34,195.58 24.77,196.05 30.92,198.58 34.99,201.76 39.80,204.31 46.10,203.71 50.05,199.53 51.42,194.60 48.71,189.55 44.94,184.90 38.81,183.85 25.18,184.54 13.22,179.54 4.13,170.45 1.18,161.31 2.72,152.03 8.31,143.58 11.03,136.03 10.46,130.41 4.56,124.88 -1.56,122.54 -8.40,122.46 -18.88,125.64 -30.20,123.83 -40.24,118.36 -47.10,109.20 -49.84,100.38 -50.29,91.35 -48.70,83.22 -48.79,75.32 -51.92,68.74 -57.78,64.80 -64.86,63.24 -70.07,63.61 -78.22,65.80 -87.97,65.58 -95.64,59.10 -98.02,45.43 -92.99,35.37 -79.95,29.36 -68.83,30.30 -59.82,32.93 -49.69,38.35"/>
        <lane id="38014010_1" index="1" disallow="tram rail_urban rail rail_electric rail_fast ship" speed="16.67" length="2198.47" shape="54.97,151.23 63.05,159.31 71.49,163.53 78.04,164.74 84.62,163.51 91.33,158.96 95.83,153.16 97.60,146.18 97.45,139.49 95.44,133.25 89.17,124.89 84.98,121.39 78.87,116.65 72.47,113.33 65.25,110.78 59.27,108.83 53.10,106.15 47.75,102.29 42.62,96.53 21.79,64.75 19.60,57.76 19.60,50.47 22.80,45.51 28.53,41.75 35.78,41.25 42.61,42.88 67.37,56.57 74.79,58.62 82.44,57.55 89.44,54.45 96.13,48.78 109.32,35.77 116.71,31.44 126.47,27.54 134.38,25.85 141.73,25.34 147.71,25.59 152.54,27.22 157.77,29.63 162.39,32.29 167.54,35.48 173.41,39.31 179.72,41.60 186.26,41.60 192.86,39.40 197.25,35.01 200.83,29.51 201.63,21.82 199.45,15.30 196.51,10.77 191.56,6.96 186.49,4.46 178.32,3.13 170.07,2.40 -30.00,2.40 -44.34,2.40 -52.47,6.02 -60.55,7.38 -69.07,4.16 -118.33,-55.97 -121.05,-62.79 -121.96,-69.16 -119.54,-75.76 -110.82,-86.36 -104.21,-94.68 -101.63,-103.45 -106.81,-114.01 -114.59,-119.49 -124.63,-118.15 -185.24,-92.25 -197.81,-76.70 -199.80,-55.17 -195.80,-35.49 -185.14,-18.21 -167.12,-5.77 -152.68,2.39 -144.91,11.90 -141.45,27.60 -142.60,37.51 -146.14,48.10 -148.56,56.09 -147.71,65.46 -132.49,122.79 -130.49,134.17 -126.73,143.84 -121.12,149.41 -113.23,154.56 -106.38,159.27 -101.15,166.18 -70.50,232.14 -36.89,287.13 -17.50,298.65 10.66,303.12 37.19,301.34 61.78,288.07 72.86,266.16 67.51,242.86 51.47,229.97 30.12,223.44 9.87,223.01 -2.75,226.08 -11.03,234.13 -10.97,244.26 -3.59,251.54 8.44,251.66 15.63,247.78 23.28,244.39 34.00,244.99 43.72,250.78 42.43,263.94 33.20,272.82 14.25,277.24 -3.20,272.18 -18.18,264.21 -26.15,242.51 -23.38,225.44 -14.00,212.52 -3.63,204.40 11.51,199.49 17.42,198.80 24.05,199.21 29.30,201.38 33.25,204.46 39.14,207.59 47.60,206.79 52.93,201.15 54.84,194.22 51.39,187.77 46.66,181.94 39.01,180.63 25.74,181.30 15.04,176.84 6.93,168.73 4.46,161.07 5.76,153.23 11.19,145.02 14.29,136.43 13.52,128.89 6.28,122.12 -0.96,119.34 -8.86,119.26 -19.10,122.36 -29.16,120.75 -38.10,115.88 -44.20,107.72 -46.66,99.82 -47.07,91.59 -45.50,83.52 -45.59,74.58 -49.40,66.58 -56.50,61.80 -64.62,60.02 -70.61,60.45 -78.60,62.60 -86.77,62.40 -92.68,57.40 -94.68,45.91 -90.63,37.81 -79.37,32.62 -69.41,33.46 -61.04,35.91 -51.20,41.17"/>
    </edge>

    <junction id="4370324319" type="priority" x="56.00" y="150.00" incLanes="25304430_0 25304430_1" intLanes=":4370324319_0_0 :4370324319_0_1" shape="53.84,152.36 58.36,147.84 58.21,147.68 53.60,152.12">
        <request index="0" response="00" foes="00" cont="0"/>
        <request index="1" response="00" foes="00" cont="0"/>
    </junction>
    <junction id="446557694" type="priority" x="-50.00" y="40.00" incLanes="38014010_0 38014010_1" intLanes=":446557694_0_0 :446557694_0_1" shape="-51.95,42.58 -47.35,38.14 -47.87,37.62 -48.07,37.45 -48.29,37.30 -48.56,37.14 -48.94,36.94">
        <request index="0" response="00" foes="00" cont="0"/>
        <request index="1" response="00" foes="00" cont="0"/>
    </junction>

    <connection from="25304430" to="38014010" fromLane="0" toLane="0" via=":4370324319_0_0" dir="s" state="M"/>
    <connection from="25304430" to="38014010" fromLane="1" toLane="1" via=":4370324319_0_1" dir="s" state="M"/>
    <connection from="38014010" to="25304430" fromLane="0" toLane="0" via=":446557694_0_0" dir="s" state="M"/>
    <connection from="38014010" to="25304430" fromLane="1" toLane="1" via=":446557694_0_1" dir="s" state="M"/>

    <connection from=":4370324319_0" to="38014010" fromLane="0" toLane="0" dir="s" state="M"/>
    <connection from=":4370324319_0" to="38014010" fromLane="1" toLane="1" dir="s" state="M"/>
    <connection from=":446557694_0" to="25304430" fromLane="0" toLane="0" dir="s" state="M"/>
    <connection from=":446557694_0" to="25304430" fromLane="1" toLane="1" dir="s" state="M"/>

</net>
