<?xml version="1.0" encoding="UTF-8"?>

<!-- generated on Tue 03 Dec 2019 14:57:09 GMT by Eclipse SUMO netedit Version 1.3.1
<configuration xmlns:xsi="http://www.w3.org/2001/XMLSchema-instance" xsi:noNamespaceSchemaLocation="http://sumo.dlr.de/xsd/netconvertConfiguration.xsd">

    <input>
        <sumo-net-file value="/home/justin941208/PhD/DriveML/dataset_public/3lane_sharp_b/map.net.xml"/>
    </input>

    <output>
        <output-file value="/home/justin941208/PhD/DriveML/dataset_public/3lane_sharp_b/map.net.xml"/>
    </output>

    <processing>
        <geometry.max-grade.fix value="false"/>
        <offset.disable-normalization value="true"/>
        <opposites.guess.fix-lengths value="true"/>
        <lefthand value="false"/>
    </processing>

    <junctions>
        <no-turnarounds value="true"/>
        <junctions.corner-detail value="5"/>
        <junctions.limit-turn-speed value="5.5"/>
        <rectangular-lane-cut value="false"/>
    </junctions>

    <pedestrian>
        <walkingareas value="false"/>
    </pedestrian>

</configuration>
-->

<net version="1.3" junctionCornerDetail="5" limitTurnSpeed="5.50" xmlns:xsi="http://www.w3.org/2001/XMLSchema-instance" xsi:noNamespaceSchemaLocation="http://sumo.dlr.de/xsd/net_file.xsd">

    <location netOffset="-630882.85,-4856133.12" convBoundary="-136.21,3.83,200.67,172.76" origBoundary="-79.371708,43.846679,-79.369237,43.847436" projParameter="+proj=utm +zone=17 +ellps=WGS84 +datum=WGS84 +units=m +no_defs"/>

    <type id="highway.bridleway" priority="1" numLanes="1" speed="2.78" allow="pedestrian" oneway="1" width="2.00"/>
    <type id="highway.bus_guideway" priority="1" numLanes="1" speed="27.78" allow="bus" oneway="1"/>
    <type id="highway.cycleway" priority="1" numLanes="1" speed="8.33" allow="bicycle" oneway="0" width="1.00"/>
    <type id="highway.footway" priority="1" numLanes="1" speed="2.78" allow="pedestrian" oneway="1" width="2.00"/>
    <type id="highway.ford" priority="1" numLanes="1" speed="2.78" allow="army" oneway="0"/>
    <type id="highway.living_street" priority="2" numLanes="1" speed="2.78" disallow="tram rail_urban rail rail_electric ship" oneway="0"/>
    <type id="highway.motorway" priority="14" numLanes="2" speed="39.44" allow="private emergency authority army vip passenger hov taxi bus coach delivery truck trailer motorcycle evehicle custom1 custom2" oneway="1"/>
    <type id="highway.motorway_link" priority="9" numLanes="1" speed="22.22" allow="private emergency authority army vip passenger hov taxi bus coach delivery truck trailer motorcycle evehicle custom1 custom2" oneway="1"/>
    <type id="highway.path" priority="1" numLanes="1" speed="2.78" allow="pedestrian bicycle" oneway="1" width="2.00"/>
    <type id="highway.pedestrian" priority="1" numLanes="1" speed="2.78" allow="pedestrian" oneway="1" width="2.00"/>
    <type id="highway.primary" priority="12" numLanes="2" speed="27.78" disallow="tram rail_urban rail rail_electric ship" oneway="0"/>
    <type id="highway.primary_link" priority="7" numLanes="1" speed="22.22" disallow="tram rail_urban rail rail_electric ship" oneway="0"/>
    <type id="highway.raceway" priority="15" numLanes="2" speed="83.33" allow="vip" oneway="0"/>
    <type id="highway.residential" priority="3" numLanes="1" speed="13.89" disallow="tram rail_urban rail rail_electric ship" oneway="0"/>
    <type id="highway.secondary" priority="11" numLanes="2" speed="27.78" disallow="tram rail_urban rail rail_electric ship" oneway="0"/>
    <type id="highway.secondary_link" priority="6" numLanes="1" speed="22.22" disallow="tram rail_urban rail rail_electric ship" oneway="0"/>
    <type id="highway.service" priority="1" numLanes="1" speed="5.56" allow="pedestrian delivery bicycle" oneway="0"/>
    <type id="highway.stairs" priority="1" numLanes="1" speed="1.39" allow="pedestrian" oneway="1" width="2.00"/>
    <type id="highway.step" priority="1" numLanes="1" speed="1.39" allow="pedestrian" oneway="1" width="2.00"/>
    <type id="highway.steps" priority="1" numLanes="1" speed="1.39" allow="pedestrian" oneway="1" width="2.00"/>
    <type id="highway.tertiary" priority="10" numLanes="1" speed="22.22" disallow="tram rail_urban rail rail_electric ship" oneway="0"/>
    <type id="highway.tertiary_link" priority="5" numLanes="1" speed="22.22" disallow="tram rail_urban rail rail_electric ship" oneway="0"/>
    <type id="highway.track" priority="1" numLanes="1" speed="5.56" disallow="tram rail_urban rail rail_electric ship" oneway="0"/>
    <type id="highway.trunk" priority="13" numLanes="2" speed="27.78" disallow="pedestrian bicycle tram rail_urban rail rail_electric ship" oneway="0"/>
    <type id="highway.trunk_link" priority="8" numLanes="1" speed="22.22" disallow="pedestrian bicycle tram rail_urban rail rail_electric ship" oneway="0"/>
    <type id="highway.unclassified" priority="4" numLanes="1" speed="13.89" disallow="tram rail_urban rail rail_electric ship" oneway="0"/>
    <type id="highway.unsurfaced" priority="1" numLanes="1" speed="8.33" disallow="tram rail_urban rail rail_electric ship" oneway="0"/>
    <type id="railway.light_rail" priority="19" numLanes="1" speed="27.78" allow="rail_urban" oneway="1"/>
    <type id="railway.preserved" priority="16" numLanes="1" speed="27.78" allow="rail" oneway="1"/>
    <type id="railway.rail" priority="20" numLanes="1" speed="83.33" allow="rail rail_electric" oneway="1"/>
    <type id="railway.subway" priority="18" numLanes="1" speed="27.78" allow="rail_urban" oneway="1"/>
    <type id="railway.tram" priority="17" numLanes="1" speed="13.89" allow="tram" oneway="1"/>

    <edge id=":4370324323_0" function="internal">
        <lane id=":4370324323_0_0" index="0" disallow="tram rail_urban rail rail_electric rail_fast ship" speed="11.70" length="1.90" shape="-53.80,1.67 -52.94,1.30 -52.32,1.11 -51.68,1.02 -50.74,0.99"/>
        <lane id=":4370324323_0_1" index="1" disallow="tram rail_urban rail rail_electric rail_fast ship" speed="9.16" length="1.90" shape="-52.50,4.60 -51.99,4.38 -51.62,4.26 -51.24,4.21 -50.67,4.19"/>
        <lane id=":4370324323_0_2" index="2" disallow="tram rail_urban rail rail_electric rail_fast ship" speed="16.67" length="1.90" shape="-51.21,7.52 -51.04,7.45 -50.92,7.41 -50.79,7.39 -50.60,7.39"/>
    </edge>
    <edge id=":446557694_0" function="internal">
        <lane id=":446557694_0_0" index="0" disallow="tram rail_urban rail rail_electric rail_fast ship" speed="8.77" length="3.32" shape="-138.60,55.25 -139.13,53.71 -139.33,52.59 -139.18,51.45 -138.71,49.90"/>
        <lane id=":446557694_0_1" index="1" disallow="tram rail_urban rail rail_electric rail_fast ship" speed="6.92" length="3.32" shape="-135.61,54.11 -135.93,53.19 -136.04,52.52 -135.96,51.84 -135.68,50.90"/>
        <lane id=":446557694_0_2" index="2" disallow="tram rail_urban rail rail_electric rail_fast ship" speed="4.35" length="3.32" shape="-132.61,52.98 -132.72,52.67 -132.76,52.44 -132.73,52.22 -132.64,51.91"/>
    </edge>

    <edge id="25304430" from="4370324323" to="446557694" priority="11" type="highway.secondary" spreadType="center" shape="-51.63,4.21 -43.01,4.02 -35.36,6.39 -27.56,12.73 -22.94,21.55 -13.42,75.98 -13.92,85.37 -14.88,91.50 -15.91,98.93 -14.65,105.06 -11.98,109.39 -7.18,112.56 -1.15,113.68 6.29,112.24 12.48,107.09 16.87,100.72 17.42,92.96 12.77,85.77 8.38,79.22 4.24,72.39 1.35,64.64 0.67,55.97 2.58,46.29 7.02,39.10 13.36,33.91 21.78,30.26 31.94,27.94 170.00,4.00 178.12,3.83 185.11,5.23 190.33,7.68 194.81,11.23 198.00,16.00 199.66,21.45 200.67,26.78 200.29,33.35 186.18,131.67 184.00,137.33 178.67,142.82 139.04,165.43 129.63,170.15 123.94,172.76 117.54,172.29 111.65,168.38 108.69,163.49 106.67,157.56 106.83,151.21 109.36,146.72 112.63,142.59 118.91,140.19 125.94,140.16 133.17,139.77 139.31,136.02 143.61,128.98 144.20,121.07 141.73,114.38 103.22,40.36 99.23,35.98 94.55,32.93 88.78,30.83 83.13,30.46 34.14,39.10 27.28,40.54 19.63,43.54 14.92,47.96 12.71,54.68 13.17,61.54 16.21,68.59 21.46,76.09 28.88,86.91 33.53,93.02 34.37,99.91 31.76,105.53 26.08,111.12 17.11,118.44 11.36,125.68 7.13,134.90 4.83,144.34 4.30,154.44 1.32,164.90 -5.37,170.40 -13.06,172.69 -22.92,171.38 -32.89,166.45 -41.54,159.32 -48.53,150.58 -53.73,141.54 -56.22,134.57 -56.64,126.77 -55.25,118.64 -38.02,86.52 -34.38,79.48 -31.91,73.73 -30.58,66.51 -32.50,61.01 -35.26,56.66 -40.21,52.61 -46.42,49.76 -53.25,48.58 -59.41,48.64 -69.44,51.65 -81.81,56.54 -92.46,61.60 -102.57,66.73 -111.50,71.39 -119.60,71.14 -127.55,67.75 -132.89,61.26 -136.21,52.52">
        <lane id="25304430_0" index="0" disallow="tram rail_urban rail rail_electric rail_fast ship" speed="16.67" length="1307.06" shape="-50.74,0.99 -42.56,0.81 -33.82,3.52 -25.03,10.66 -19.87,20.51 -10.21,75.79 -10.73,85.70 -11.71,91.97 -12.66,98.82 -11.63,103.86 -9.63,107.11 -5.96,109.53 -1.16,110.42 4.88,109.25 10.09,104.91 13.74,99.62 14.15,93.80 10.10,87.53 5.68,80.94 1.35,73.79 -1.81,65.34 -2.55,55.78 -0.45,45.10 4.58,36.96 11.68,31.15 20.78,27.21 31.31,24.80 169.69,0.81 178.40,0.62 186.12,2.17 192.03,4.94 197.19,9.03 200.92,14.61 202.77,20.68 203.89,26.57 203.48,33.67 189.30,132.48 186.75,139.09 180.65,145.37 140.55,168.25 131.01,173.04 124.53,176.01 116.47,175.42 109.28,170.65 105.77,164.85 103.46,158.05 103.65,150.33 106.70,144.93 110.67,139.91 118.31,136.99 125.85,136.96 132.19,136.62 136.98,133.69 140.48,127.97 140.96,121.53 138.80,115.68 100.57,42.21 97.14,38.44 93.11,35.81 88.11,33.99 83.31,33.68 34.75,42.24 28.20,43.62 21.37,46.29 17.70,49.73 15.94,55.09 16.33,60.78 19.02,67.02 24.09,74.27 31.47,85.03 36.60,91.77 37.66,100.43 34.42,107.40 28.22,113.51 19.40,120.70 14.11,127.37 10.17,135.96 8.01,144.81 7.48,154.97 4.12,166.74 -3.84,173.28 -12.80,175.95 -23.86,174.48 -34.64,169.15 -43.83,161.58 -51.18,152.39 -56.65,142.89 -59.39,135.21 -59.85,126.58 -58.32,117.59 -40.85,85.03 -37.28,78.11 -34.99,72.80 -33.88,66.76 -35.40,62.41 -37.69,58.81 -41.92,55.35 -47.38,52.84 -53.51,51.78 -58.92,51.84 -68.39,54.68 -80.53,59.48 -91.05,64.47 -101.11,69.58 -110.76,74.61 -120.30,74.32 -129.52,70.39 -135.69,62.89 -138.60,55.25"/>
        <lane id="25304430_1" index="1" disallow="tram rail_urban rail rail_electric rail_fast ship" speed="16.67" length="1307.06" shape="-50.67,4.19 -43.01,4.02 -35.36,6.39 -27.56,12.73 -22.94,21.55 -13.42,75.98 -13.92,85.37 -14.88,91.50 -15.91,98.93 -14.65,105.06 -11.98,109.39 -7.18,112.56 -1.15,113.68 6.29,112.24 12.48,107.09 16.87,100.72 17.42,92.96 12.77,85.77 8.38,79.22 4.24,72.39 1.35,64.64 0.67,55.97 2.58,46.29 7.02,39.10 13.36,33.91 21.78,30.26 31.94,27.94 170.00,4.00 178.12,3.83 185.11,5.23 190.33,7.68 194.81,11.23 198.00,16.00 199.66,21.45 200.67,26.78 200.29,33.35 186.18,131.67 184.00,137.33 178.67,142.82 139.04,165.43 129.63,170.15 123.94,172.76 117.54,172.29 111.65,168.38 108.69,163.49 106.67,157.56 106.83,151.21 109.36,146.72 112.63,142.59 118.91,140.19 125.94,140.16 133.17,139.77 139.31,136.02 143.61,128.98 144.20,121.07 141.73,114.38 103.22,40.36 99.23,35.98 94.55,32.93 88.78,30.83 83.13,30.46 34.14,39.10 27.28,40.54 19.63,43.54 14.92,47.96 12.71,54.68 13.17,61.54 16.21,68.59 21.46,76.09 28.88,86.91 33.53,93.02 34.37,99.91 31.76,105.53 26.08,111.12 17.11,118.44 11.36,125.68 7.13,134.90 4.83,144.34 4.30,154.44 1.32,164.90 -5.37,170.40 -13.06,172.69 -22.92,171.38 -32.89,166.45 -41.54,159.32 -48.53,150.58 -53.73,141.54 -56.22,134.57 -56.64,126.77 -55.25,118.64 -38.02,86.52 -34.38,79.48 -31.91,73.73 -30.58,66.51 -32.50,61.01 -35.26,56.66 -40.21,52.61 -46.42,49.76 -53.25,48.58 -59.41,48.64 -69.44,51.65 -81.81,56.54 -92.46,61.60 -102.57,66.73 -111.50,71.39 -119.60,71.14 -127.55,67.75 -132.89,61.26 -135.61,54.11"/>
        <lane id="25304430_2" index="2" disallow="tram rail_urban rail rail_electric rail_fast ship" speed="16.67" length="1307.06" shape="-50.60,7.39 -43.46,7.23 -36.90,9.26 -30.09,14.80 -26.01,22.59 -16.63,76.17 -17.11,85.04 -18.05,91.03 -19.16,99.04 -17.67,106.26 -14.33,111.67 -8.40,115.59 -1.14,116.94 7.70,115.23 14.87,109.27 20.00,101.82 20.69,92.12 15.44,84.01 11.08,77.50 7.13,70.99 4.51,63.94 3.89,56.16 5.61,47.48 9.46,41.24 15.04,36.67 22.78,33.31 32.57,31.08 170.31,7.19 177.84,7.04 184.10,8.29 188.63,10.42 192.43,13.43 195.08,17.39 196.55,22.22 197.45,26.99 197.10,33.03 183.06,130.86 181.25,135.57 176.69,140.27 137.53,162.61 128.25,167.26 123.35,169.51 118.61,169.16 114.02,166.11 111.61,162.13 109.88,157.07 110.01,152.09 112.02,148.51 114.59,145.27 119.51,143.39 126.03,143.36 134.15,142.92 141.64,138.35 146.74,129.99 147.44,120.61 144.66,113.08 105.87,38.51 101.32,33.52 95.99,30.05 89.45,27.67 82.95,27.24 33.53,35.96 26.36,37.46 17.89,40.79 12.14,46.19 9.48,54.27 10.01,62.30 13.40,70.16 18.83,77.91 26.29,88.79 30.46,94.27 31.08,99.39 29.10,103.66 23.94,108.73 14.82,116.18 8.61,123.99 4.09,133.84 1.65,143.87 1.12,153.91 -1.48,163.06 -6.90,167.52 -13.32,169.43 -21.98,168.28 -31.14,163.75 -39.25,157.06 -45.88,148.77 -50.81,140.19 -53.05,133.93 -53.43,126.96 -52.18,119.69 -35.19,88.01 -31.48,80.85 -28.83,74.66 -27.28,66.26 -29.60,59.61 -32.83,54.51 -38.50,49.87 -45.46,46.68 -52.99,45.38 -59.90,45.44 -70.49,48.62 -83.09,53.60 -93.87,58.73 -104.03,63.88 -112.24,68.17 -118.90,67.96 -125.58,65.11 -130.09,59.63 -132.61,52.98"/>
    </edge>
    <edge id="38014010" from="446557694" to="4370324323" priority="11" type="highway.secondary" spreadType="center" shape="-136.21,52.52 -133.23,43.50 -124.50,36.33 -51.63,4.21">
        <lane id="38014010_0" index="0" disallow="tram rail_urban rail rail_electric rail_fast ship" speed="16.67" length="97.77" shape="-138.71,49.90 -135.98,41.62 -126.19,33.58 -53.80,1.67"/>
        <lane id="38014010_1" index="1" disallow="tram rail_urban rail rail_electric rail_fast ship" speed="16.67" length="97.77" shape="-135.68,50.90 -133.23,43.50 -124.50,36.33 -52.50,4.60"/>
        <lane id="38014010_2" index="2" disallow="tram rail_urban rail rail_electric rail_fast ship" speed="16.67" length="97.77" shape="-132.64,51.91 -130.48,45.38 -122.81,39.08 -51.21,7.52"/>
    </edge>

    <junction id="4370324323" type="priority" x="-51.63" y="4.21" incLanes="38014010_0 38014010_1 38014010_2" intLanes=":4370324323_0_0 :4370324323_0_1 :4370324323_0_2" shape="-50.57,8.99 -50.78,-0.61 -52.18,-0.55 -52.67,-0.47 -53.15,-0.33 -53.70,-0.12 -54.44,0.20">
        <request index="0" response="000" foes="000" cont="0"/>
        <request index="1" response="000" foes="000" cont="0"/>
        <request index="2" response="000" foes="000" cont="0"/>
    </junction>
    <junction id="446557694" type="priority" x="-136.21" y="52.52" incLanes="25304430_0 25304430_1 25304430_2" intLanes=":446557694_0_0 :446557694_0_1 :446557694_0_2" shape="-140.09,55.82 -131.12,52.41 -140.23,49.40 -140.90,51.75 -140.97,52.62 -140.86,53.50 -140.57,54.51">
        <request index="0" response="000" foes="000" cont="0"/>
        <request index="1" response="000" foes="000" cont="0"/>
        <request index="2" response="000" foes="000" cont="0"/>
    </junction>

    <connection from="25304430" to="38014010" fromLane="0" toLane="0" via=":446557694_0_0" dir="s" state="M"/>
    <connection from="25304430" to="38014010" fromLane="1" toLane="1" via=":446557694_0_1" dir="s" state="M"/>
    <connection from="25304430" to="38014010" fromLane="2" toLane="2" via=":446557694_0_2" dir="s" state="M"/>
    <connection from="38014010" to="25304430" fromLane="0" toLane="0" via=":4370324323_0_0" dir="s" state="M"/>
    <connection from="38014010" to="25304430" fromLane="1" toLane="1" via=":4370324323_0_1" dir="s" state="M"/>
    <connection from="38014010" to="25304430" fromLane="2" toLane="2" via=":4370324323_0_2" dir="s" state="M"/>

    <connection from=":4370324323_0" to="25304430" fromLane="0" toLane="0" dir="s" state="M"/>
    <connection from=":4370324323_0" to="25304430" fromLane="1" toLane="1" dir="s" state="M"/>
    <connection from=":4370324323_0" to="25304430" fromLane="2" toLane="2" dir="s" state="M"/>
    <connection from=":446557694_0" to="38014010" fromLane="0" toLane="0" dir="s" state="M"/>
    <connection from=":446557694_0" to="38014010" fromLane="1" toLane="1" dir="s" state="M"/>
    <connection from=":446557694_0" to="38014010" fromLane="2" toLane="2" dir="s" state="M"/>

</net>
