<?xml version="1.0" encoding="UTF-8"?>

<!-- generated on Tue 03 Dec 2019 15:41:43 GMT by Eclipse SUMO netedit Version 1.3.1
<configuration xmlns:xsi="http://www.w3.org/2001/XMLSchema-instance" xsi:noNamespaceSchemaLocation="http://sumo.dlr.de/xsd/netconvertConfiguration.xsd">

    <input>
        <sumo-net-file value="/home/benedikt/dev/DriveML/tracks/3lane_new_a/map.net.xml"/>
    </input>

    <output>
        <output-file value="/home/benedikt/dev/DriveML/tracks/3lane_new_a/map.net.xml"/>
    </output>

    <processing>
        <geometry.max-grade.fix value="false"/>
        <offset.disable-normalization value="true"/>
        <opposites.guess.fix-lengths value="true"/>
        <lefthand value="false"/>
    </processing>

    <junctions>
        <no-turnarounds value="true"/>
        <junctions.corner-detail value="5"/>
        <junctions.limit-turn-speed value="5.5"/>
        <rectangular-lane-cut value="false"/>
    </junctions>

    <pedestrian>
        <walkingareas value="false"/>
    </pedestrian>

</configuration>
-->

<net version="1.3" junctionCornerDetail="5" limitTurnSpeed="5.50" xmlns:xsi="http://www.w3.org/2001/XMLSchema-instance" xsi:noNamespaceSchemaLocation="http://sumo.dlr.de/xsd/net_file.xsd">

    <location netOffset="-630882.85,-4856133.12" convBoundary="-113.86,-156.49,414.37,322.54" origBoundary="-79.371708,43.846679,-79.369237,43.847436" projParameter="+proj=utm +zone=17 +ellps=WGS84 +datum=WGS84 +units=m +no_defs"/>

    <type id="highway.bridleway" priority="1" numLanes="1" speed="2.78" allow="pedestrian" oneway="1" width="2.00"/>
    <type id="highway.bus_guideway" priority="1" numLanes="1" speed="27.78" allow="bus" oneway="1"/>
    <type id="highway.cycleway" priority="1" numLanes="1" speed="8.33" allow="bicycle" oneway="0" width="1.00"/>
    <type id="highway.footway" priority="1" numLanes="1" speed="2.78" allow="pedestrian" oneway="1" width="2.00"/>
    <type id="highway.ford" priority="1" numLanes="1" speed="2.78" allow="army" oneway="0"/>
    <type id="highway.living_street" priority="2" numLanes="1" speed="2.78" disallow="tram rail_urban rail rail_electric ship" oneway="0"/>
    <type id="highway.motorway" priority="14" numLanes="2" speed="39.44" allow="private emergency authority army vip passenger hov taxi bus coach delivery truck trailer motorcycle evehicle custom1 custom2" oneway="1"/>
    <type id="highway.motorway_link" priority="9" numLanes="1" speed="22.22" allow="private emergency authority army vip passenger hov taxi bus coach delivery truck trailer motorcycle evehicle custom1 custom2" oneway="1"/>
    <type id="highway.path" priority="1" numLanes="1" speed="2.78" allow="pedestrian bicycle" oneway="1" width="2.00"/>
    <type id="highway.pedestrian" priority="1" numLanes="1" speed="2.78" allow="pedestrian" oneway="1" width="2.00"/>
    <type id="highway.primary" priority="12" numLanes="2" speed="27.78" disallow="tram rail_urban rail rail_electric ship" oneway="0"/>
    <type id="highway.primary_link" priority="7" numLanes="1" speed="22.22" disallow="tram rail_urban rail rail_electric ship" oneway="0"/>
    <type id="highway.raceway" priority="15" numLanes="2" speed="83.33" allow="vip" oneway="0"/>
    <type id="highway.residential" priority="3" numLanes="1" speed="13.89" disallow="tram rail_urban rail rail_electric ship" oneway="0"/>
    <type id="highway.secondary" priority="11" numLanes="2" speed="27.78" disallow="tram rail_urban rail rail_electric ship" oneway="0"/>
    <type id="highway.secondary_link" priority="6" numLanes="1" speed="22.22" disallow="tram rail_urban rail rail_electric ship" oneway="0"/>
    <type id="highway.service" priority="1" numLanes="1" speed="5.56" allow="pedestrian delivery bicycle" oneway="0"/>
    <type id="highway.stairs" priority="1" numLanes="1" speed="1.39" allow="pedestrian" oneway="1" width="2.00"/>
    <type id="highway.step" priority="1" numLanes="1" speed="1.39" allow="pedestrian" oneway="1" width="2.00"/>
    <type id="highway.steps" priority="1" numLanes="1" speed="1.39" allow="pedestrian" oneway="1" width="2.00"/>
    <type id="highway.tertiary" priority="10" numLanes="1" speed="22.22" disallow="tram rail_urban rail rail_electric ship" oneway="0"/>
    <type id="highway.tertiary_link" priority="5" numLanes="1" speed="22.22" disallow="tram rail_urban rail rail_electric ship" oneway="0"/>
    <type id="highway.track" priority="1" numLanes="1" speed="5.56" disallow="tram rail_urban rail rail_electric ship" oneway="0"/>
    <type id="highway.trunk" priority="13" numLanes="2" speed="27.78" disallow="pedestrian bicycle tram rail_urban rail rail_electric ship" oneway="0"/>
    <type id="highway.trunk_link" priority="8" numLanes="1" speed="22.22" disallow="pedestrian bicycle tram rail_urban rail rail_electric ship" oneway="0"/>
    <type id="highway.unclassified" priority="4" numLanes="1" speed="13.89" disallow="tram rail_urban rail rail_electric ship" oneway="0"/>
    <type id="highway.unsurfaced" priority="1" numLanes="1" speed="8.33" disallow="tram rail_urban rail rail_electric ship" oneway="0"/>
    <type id="railway.light_rail" priority="19" numLanes="1" speed="27.78" allow="rail_urban" oneway="1"/>
    <type id="railway.preserved" priority="16" numLanes="1" speed="27.78" allow="rail" oneway="1"/>
    <type id="railway.rail" priority="20" numLanes="1" speed="83.33" allow="rail rail_electric" oneway="1"/>
    <type id="railway.subway" priority="18" numLanes="1" speed="27.78" allow="rail_urban" oneway="1"/>
    <type id="railway.tram" priority="17" numLanes="1" speed="13.89" allow="tram" oneway="1"/>

    <edge id=":275632284_0" function="internal">
        <lane id=":275632284_0_0" index="0" disallow="tram rail_urban rail rail_electric rail_fast ship" speed="16.67" length="1.50" shape="76.52,65.69 76.37,65.73 76.28,65.76 76.19,65.81 76.06,65.88"/>
        <lane id=":275632284_0_1" index="1" disallow="tram rail_urban rail rail_electric rail_fast ship" speed="12.99" length="1.50" shape="75.76,62.58 75.33,62.69 75.04,62.79 74.77,62.93 74.39,63.15"/>
        <lane id=":275632284_0_2" index="2" disallow="tram rail_urban rail rail_electric rail_fast ship" speed="16.67" length="1.50" shape="75.01,59.47 74.29,59.65 73.81,59.82 73.35,60.04 72.71,60.43"/>
    </edge>
    <edge id=":4370324319_0" function="internal">
        <lane id=":4370324319_0_0" index="0" disallow="tram rail_urban rail rail_electric rail_fast ship" speed="16.67" length="0.28" shape="26.59,73.07 26.50,73.05"/>
        <lane id=":4370324319_0_1" index="1" disallow="tram rail_urban rail rail_electric rail_fast ship" speed="16.67" length="0.28" shape="27.38,69.96 27.10,69.90"/>
        <lane id=":4370324319_0_2" index="2" disallow="tram rail_urban rail rail_electric rail_fast ship" speed="16.67" length="0.28" shape="28.16,66.86 27.70,66.76"/>
    </edge>

    <edge id="25304430" from="4370324319" to="275632284" priority="11" type="highway.secondary" spreadType="center" shape="27.24,69.93 17.28,68.03 9.56,70.09 4.57,76.25 2.55,82.81 -1.56,87.44 -9.32,87.98 -15.22,85.83 -19.54,80.51 -18.47,74.23 -15.94,70.29 -11.83,66.34 -5.07,64.13 0.46,63.89 5.18,61.34 7.36,56.81 5.06,51.44 2.45,45.33 0.22,39.25 -1.03,30.58 0.00,21.78 1.93,16.34 5.40,10.75 8.28,6.98 12.47,3.97 17.26,1.75 22.71,0.34 29.36,0.00 35.07,0.86 40.00,2.00 46.00,4.00 52.00,6.00 57.34,8.00 63.34,10.27 70.28,12.94 77.34,15.07 86.13,17.07 94.00,18.67 101.01,19.39 107.92,20.21 114.81,20.81 121.82,20.86 129.80,19.29 135.52,17.55 146.37,13.38 156.49,9.36 163.00,7.22 169.63,5.60 176.57,5.20 184.51,6.15 190.71,8.32 196.23,9.82 202.03,9.19 207.88,7.19 214.33,6.92 219.48,9.86 224.54,12.26 228.81,13.73 235.07,14.92 240.21,14.79 246.27,14.81 253.69,12.60 258.78,9.67 265.71,6.39 274.39,4.45 284.07,4.81 292.87,9.65 300.43,13.61 308.24,15.42 317.57,17.70 328.30,17.61 336.83,16.96 349.98,17.72 356.85,17.42 363.71,17.50 369.83,17.59 377.26,17.65 387.36,16.53 396.29,16.95 401.59,17.26 406.60,18.53 411.59,20.43 413.91,24.32 414.37,29.09 413.09,32.88 409.43,36.42 406.89,38.91 401.77,41.44 397.44,42.25 390.58,43.51 384.04,44.81 379.23,45.80 375.15,46.64 369.14,48.23 363.47,51.65 358.94,55.48 356.64,60.16 357.00,66.11 358.41,72.00 358.26,76.65 355.46,83.36 352.64,87.17 349.79,91.02 346.58,95.35 344.22,98.53 340.87,103.06 338.06,108.02 337.40,114.62 339.35,121.47 341.85,128.35 342.67,135.10 340.42,140.25 336.09,143.67 329.86,144.46 324.12,143.92 318.35,144.31 313.45,146.31 308.45,150.66 304.53,154.13 301.63,158.12 298.02,163.08 294.17,168.38 290.82,172.99 287.72,177.25 282.04,182.83 277.37,187.87 272.49,191.77 268.36,194.23 262.83,197.53 257.51,200.87 251.96,205.83 249.51,210.19 248.08,215.60 246.61,221.16 245.31,226.05 243.37,233.40 241.83,239.22 240.42,244.55 239.51,248.00 238.74,250.93 234.97,256.28 232.33,260.02 228.52,265.43 226.97,267.63 223.89,272.00 221.22,275.79 218.73,279.32 216.15,281.76 213.67,284.10 209.62,287.93 206.09,291.27 203.09,294.11 199.71,297.31 196.92,299.95 192.61,304.03 188.95,308.27 186.53,313.59 182.84,317.30 179.98,319.39 175.37,321.66 170.79,322.54 165.33,321.59 161.93,319.73 157.87,316.17 152.19,312.04 148.04,309.02 143.36,302.70 140.11,295.96 137.56,290.36 137.82,283.39 139.46,276.75 142.92,270.88 145.66,265.85 147.15,261.01 147.44,255.80 145.98,249.73 142.38,244.54 135.77,240.75 130.14,238.64 125.79,234.18 123.01,228.50 122.00,222.23 124.18,216.57 127.05,208.99 127.22,201.96 126.41,196.44 124.14,191.54 120.53,185.77 116.44,181.99 111.90,179.63 106.19,178.65 102.14,178.19 97.62,178.82 92.57,181.46 89.45,185.72 87.05,190.99 83.32,195.69 79.51,198.99 73.44,201.74 66.05,203.12 59.86,203.54 52.43,202.81 45.78,200.18 40.59,196.27 36.55,190.47 33.59,185.02 31.68,178.57 29.88,172.75 28.26,165.97 26.58,160.27 24.52,153.55 22.41,147.37 19.98,142.37 16.54,137.15 13.07,132.89 9.95,130.26 5.68,127.91 0.28,127.17 -4.75,127.56 -8.72,127.86 -15.18,128.06 -20.28,127.51 -25.79,125.87 -31.24,122.71 -33.85,119.36 -35.88,116.77 -37.56,113.36 -39.55,109.29 -42.48,103.31 -44.67,98.84 -46.93,94.22 -48.93,90.15 -51.52,84.86 -53.78,80.25 -55.91,76.28 -59.15,72.67 -62.42,69.13 -66.39,65.55 -70.61,64.10 -77.25,62.85 -83.93,64.76 -89.09,68.44 -90.94,74.36 -90.24,82.90 -89.56,88.14 -89.08,92.11 -88.55,96.46 -87.96,101.35 -87.27,107.09 -86.65,112.24 -86.10,116.74 -85.47,121.93 -83.54,125.66 -81.12,128.59 -77.49,130.87 -74.01,133.07 -69.13,135.25 -63.46,137.77 -57.78,140.30 -52.39,142.70 -45.87,145.60 -40.02,148.21 -33.73,150.60 -26.02,153.67 -22.70,154.87 -17.89,156.60 -13.29,157.21 -8.85,157.79 -0.78,158.37 6.03,161.04 10.80,164.56 14.68,168.44 16.40,173.07 15.38,178.25 12.38,182.83 8.18,184.89 1.93,187.22 -2.08,188.71 -7.35,190.67 -12.42,192.56 -19.72,193.61 -25.34,192.62 -31.31,189.77 -36.14,187.46 -42.32,184.51 -48.41,181.60 -54.66,178.61 -59.74,176.18 -65.24,173.56 -68.67,171.92 -74.34,169.21 -80.17,166.42 -85.26,163.99 -89.86,161.79 -96.11,158.80 -101.28,156.33 -107.47,152.38 -111.11,146.19 -113.54,140.24 -113.51,135.69 -113.49,132.36 -113.45,126.31 -113.41,120.57 -113.37,114.21 -113.33,108.02 -113.28,103.34 -113.21,95.64 -113.15,89.84 -113.09,83.52 -113.03,76.81 -113.01,69.68 -113.70,61.92 -113.86,55.12 -113.08,46.97 -111.26,39.84 -108.25,33.42 -104.72,27.77 -101.31,22.13 -97.05,16.51 -92.89,11.71 -87.23,7.08 -81.18,2.23 -75.01,-1.86 -68.48,-6.37 -63.11,-9.69 -57.96,-12.87 -52.65,-16.15 -47.25,-19.48 -41.04,-23.32 -35.97,-26.45 -31.76,-29.05 -25.76,-32.76 -20.00,-36.32 -15.57,-39.06 -12.63,-42.79 -8.86,-47.57 -5.35,-52.02 -0.87,-57.70 3.78,-63.60 7.75,-68.64 10.30,-72.86 13.07,-77.45 17.06,-84.04 21.01,-90.58 24.58,-96.50 28.62,-103.20 32.33,-109.33 35.82,-115.07 39.12,-120.01 42.76,-126.38 42.89,-133.29 41.46,-141.82 43.24,-148.53 49.31,-154.31 56.91,-155.77 64.89,-156.49 72.66,-153.37 77.56,-148.85 80.07,-140.66 76.21,-134.78 70.55,-131.26 62.31,-130.85 55.81,-128.64 50.95,-121.03 46.47,-113.57 43.94,-109.25 41.45,-105.00 38.93,-100.70 36.02,-95.74 33.33,-91.14 30.55,-86.04 28.36,-81.49 26.66,-77.95 25.59,-73.88 24.24,-68.74 22.44,-61.14 21.46,-54.05 19.62,-44.64 16.02,-36.41 11.71,-28.40 5.74,-23.19 -2.79,-19.57 -11.25,-17.89 -18.56,-14.86 -26.08,-8.64 -32.31,-2.35 -38.38,4.07 -42.97,10.53 -47.32,17.09 -51.89,23.92 -56.19,31.51 -58.23,39.84 -58.87,47.17 -57.89,54.33 -54.71,61.06 -51.06,66.48 -46.30,72.81 -40.65,81.28 -34.00,89.48 -27.63,96.47 -21.81,102.00 -14.33,107.13 -5.72,109.59 3.02,110.88 11.80,110.46 16.78,109.40 22.07,108.27 28.64,104.44 33.92,99.87 39.51,96.27 47.47,94.26 55.19,94.63 61.67,96.13 68.40,100.07 74.26,106.37 78.46,110.47 81.93,113.87 86.34,119.11 90.32,123.83 93.40,127.81 96.71,132.10 100.22,137.52 103.53,142.65 109.90,151.38 117.39,163.28 123.09,171.35 132.35,177.16 143.72,179.86 153.18,178.20 162.98,172.57 169.73,161.82 173.34,154.77 177.30,143.74 181.78,132.38 184.15,126.85 187.01,120.18 190.63,106.04 191.81,98.25 195.47,89.90 204.15,81.89 215.28,79.23 229.08,80.89 238.02,84.37 244.28,90.10 246.23,97.90 253.11,104.35 263.43,107.99 275.13,104.95 283.02,99.20 287.42,91.09 285.42,83.18 278.22,77.49 270.28,74.48 262.77,67.67 260.71,59.45 261.43,50.63 262.43,46.70 264.72,41.94 268.00,39.78 274.06,38.38 285.35,38.75 295.51,41.31 305.38,44.94 310.03,52.43 312.61,60.78 312.44,69.63 310.89,78.02 308.32,86.58 304.25,94.41 298.87,100.89 291.82,105.53 286.44,109.07 280.12,113.23 272.12,116.98 265.29,119.43 260.20,120.09 254.92,119.51 246.86,118.40 238.41,117.86 231.88,118.61 227.40,120.17 219.70,123.87 217.11,126.70 215.74,129.38 215.88,133.08 216.78,135.98 219.20,139.08 223.16,140.86 227.50,142.24 232.22,142.87 236.86,142.90 243.05,141.42 248.76,140.05 255.00,138.56 260.65,137.21 268.12,135.42 274.05,133.96 280.58,132.36 286.61,130.88 294.40,128.96 301.21,127.10 309.95,124.70 313.75,123.27 318.82,121.35 322.09,119.60 324.79,115.57 326.02,111.12 326.11,105.97 326.08,101.11 326.07,96.38 326.02,90.87 325.98,84.86 325.95,79.01 325.92,74.11 325.89,68.27 325.85,61.36 325.80,52.03 325.85,43.57 325.56,36.17 322.20,29.86 315.86,27.58 308.80,27.56 300.30,27.53 292.80,27.50 285.55,27.48 273.55,27.44 261.54,27.08 251.29,26.99 240.04,26.89 231.79,26.82 222.03,26.73 213.34,26.95 207.72,29.84 202.60,33.88 196.41,39.54 193.05,44.42 191.05,49.66 191.46,55.71 194.14,61.40 194.31,67.54 189.41,70.67 184.23,71.84 178.39,72.68 175.65,75.15 172.80,80.95 169.86,85.51 162.04,85.72 154.10,83.62 147.08,80.25 141.13,76.11 135.42,71.22 128.28,66.56 122.72,61.78 121.74,56.72 122.19,49.66 119.62,42.19 113.01,40.03 107.17,38.88 101.23,43.30 97.77,50.73 91.26,56.56 83.60,60.68 75.03,62.76">
        <lane id="25304430_0" index="0" disallow="tram rail_urban rail rail_electric rail_fast ship" speed="16.67" length="3745.89" shape="26.50,73.05 17.40,71.31 11.39,72.91 7.45,77.78 5.40,84.42 -0.03,90.54 -9.78,91.22 -17.15,88.53 -22.94,81.40 -21.52,73.05 -18.43,68.24 -13.52,63.53 -5.65,60.95 -0.41,60.72 2.75,59.02 3.85,56.73 2.12,52.70 -0.53,46.51 -2.90,40.04 -4.26,30.62 -3.14,21.05 -0.97,14.95 2.76,8.93 6.03,4.66 10.85,1.19 16.18,-1.28 22.22,-2.84 29.52,-3.21 35.67,-2.29 40.87,-1.08 47.01,0.96 53.07,2.98 58.47,5.01 64.48,7.28 71.32,9.91 78.16,11.97 86.80,13.94 94.48,15.50 101.36,16.21 108.25,17.03 114.96,17.61 121.52,17.66 129.02,16.18 134.48,14.52 145.21,10.40 155.40,6.35 162.12,4.14 169.15,2.42 176.67,1.99 185.24,3.01 191.66,5.26 196.49,6.57 201.33,6.05 207.28,4.01 215.12,3.68 220.96,7.02 225.75,9.29 229.63,10.63 235.33,11.71 240.17,11.59 245.81,11.61 252.42,9.64 257.29,6.83 264.66,3.34 274.10,1.24 284.95,1.64 294.38,6.83 301.55,10.59 308.98,12.31 317.94,14.50 328.16,14.41 336.80,13.75 350.00,14.52 356.80,14.22 363.75,14.30 369.87,14.39 377.10,14.45 387.26,13.32 396.45,13.75 402.08,14.08 407.57,15.47 413.77,17.84 417.03,23.30 417.62,29.46 415.87,34.64 411.66,38.71 408.77,41.55 402.79,44.50 398.02,45.40 391.18,46.65 384.67,47.95 379.88,48.93 375.88,49.76 370.40,51.21 365.34,54.26 361.52,57.49 359.89,60.81 360.18,65.64 361.62,71.67 361.44,77.34 358.26,84.95 355.21,89.07 352.36,92.92 349.15,97.26 346.79,100.43 343.56,104.81 341.18,109.01 340.64,114.33 342.40,120.48 344.98,127.60 345.95,135.58 343.03,142.26 337.38,146.73 329.91,147.68 324.08,147.13 319.08,147.47 315.15,149.07 310.56,153.07 306.91,156.29 304.22,160.00 300.61,164.96 296.76,170.26 293.41,174.87 290.15,179.35 284.34,185.06 279.55,190.22 274.32,194.41 270.00,196.98 264.50,200.26 259.44,203.44 254.49,207.86 252.50,211.40 251.17,216.42 249.70,221.98 248.40,226.87 246.46,234.22 244.92,240.04 243.51,245.37 242.60,248.81 241.69,252.30 237.59,258.12 234.95,261.86 231.14,267.27 229.59,269.47 226.51,273.84 223.84,277.63 221.16,281.43 218.35,284.09 215.87,286.43 211.82,290.25 208.29,293.59 205.29,296.43 201.91,299.63 199.12,302.27 194.93,306.24 191.67,310.01 189.20,315.44 184.93,319.74 181.64,322.14 176.40,324.72 170.82,325.79 164.26,324.65 160.09,322.37 155.87,318.67 150.31,314.63 145.76,311.32 140.61,304.36 137.21,297.32 134.33,291.00 134.63,282.94 136.47,275.53 140.14,269.30 142.70,264.60 143.98,260.44 144.22,256.09 143.01,251.06 140.16,246.96 134.40,243.66 128.35,241.39 123.14,236.05 119.93,229.48 118.70,221.89 121.19,215.43 123.86,208.37 124.01,202.16 123.31,197.36 121.32,193.07 118.04,187.83 114.58,184.63 110.87,182.70 105.74,181.82 102.18,181.42 98.61,181.91 94.71,183.95 92.23,187.35 89.80,192.67 85.64,197.91 81.25,201.71 74.41,204.81 66.45,206.30 59.81,206.75 51.67,205.95 44.20,203.00 38.26,198.52 33.82,192.15 30.62,186.25 28.62,179.50 26.79,173.60 25.17,166.79 23.52,161.19 21.48,154.54 19.45,148.59 17.19,143.96 13.96,139.05 10.78,135.14 8.13,132.91 4.66,131.00 0.19,130.39 -4.51,130.75 -8.55,131.06 -15.30,131.27 -20.91,130.66 -27.07,128.83 -33.38,125.17 -36.37,121.33 -38.60,118.48 -40.43,114.77 -42.42,110.70 -45.35,104.72 -47.54,100.25 -49.80,95.63 -51.80,91.56 -54.39,86.27 -56.63,81.71 -58.55,78.13 -61.52,74.82 -64.67,71.41 -68.05,68.36 -71.43,67.20 -77.10,66.13 -82.52,67.69 -86.36,70.42 -87.70,74.72 -87.06,82.56 -86.39,87.74 -85.90,91.72 -85.37,96.07 -84.78,100.97 -84.09,106.71 -83.47,111.85 -82.92,116.35 -82.36,120.97 -80.86,123.89 -78.98,126.15 -75.78,128.16 -72.49,130.24 -67.83,132.33 -62.16,134.85 -56.48,137.38 -51.09,139.78 -44.57,142.68 -38.80,145.25 -32.57,147.62 -24.88,150.68 -21.62,151.86 -17.13,153.47 -12.87,154.04 -8.53,154.60 -0.07,155.21 7.59,158.21 12.89,162.13 17.44,166.67 19.71,172.80 18.40,179.48 14.58,185.32 9.45,187.83 3.05,190.22 -0.96,191.71 -6.23,193.67 -11.62,195.68 -19.77,196.85 -26.32,195.70 -32.69,192.66 -37.52,190.35 -43.70,187.40 -49.79,184.49 -56.04,181.50 -61.12,179.07 -66.62,176.45 -70.05,174.81 -75.72,172.10 -81.55,169.31 -86.64,166.88 -91.24,164.68 -97.49,161.69 -102.84,159.13 -109.84,154.66 -113.99,147.61 -116.74,140.86 -116.71,135.67 -116.69,132.34 -116.65,126.29 -116.61,120.55 -116.57,114.19 -116.53,107.99 -116.48,103.31 -116.41,95.61 -116.35,89.81 -116.29,83.49 -116.23,76.79 -116.21,69.82 -116.90,62.10 -117.06,55.00 -116.24,46.42 -114.29,38.76 -111.07,31.89 -107.45,26.09 -103.96,20.33 -99.54,14.49 -95.13,9.41 -89.24,4.59 -83.07,-0.36 -76.80,-4.51 -70.23,-9.05 -64.79,-12.41 -59.64,-15.59 -54.33,-18.87 -48.93,-22.20 -42.72,-26.04 -37.65,-29.17 -33.44,-31.77 -27.44,-35.48 -21.68,-39.04 -17.73,-41.48 -15.14,-44.77 -11.37,-49.55 -7.86,-54.00 -3.38,-59.68 1.27,-65.58 5.11,-70.46 7.56,-74.51 10.33,-79.11 14.32,-85.70 18.27,-92.23 21.84,-98.15 25.88,-104.85 29.59,-110.99 33.12,-116.79 36.40,-121.69 39.58,-127.26 39.68,-133.05 38.19,-141.97 40.38,-150.22 47.78,-157.28 56.46,-158.94 65.37,-159.75 74.40,-156.12 80.37,-150.62 83.57,-140.16 78.50,-132.43 71.54,-128.11 62.92,-127.68 57.90,-125.97 53.67,-119.34 49.22,-111.93 46.70,-107.63 44.21,-103.38 41.69,-99.08 38.78,-94.12 36.12,-89.57 33.40,-84.58 31.24,-80.10 29.68,-76.84 28.68,-73.07 27.34,-67.96 25.59,-60.55 24.62,-53.52 22.69,-43.68 18.90,-35.01 14.25,-26.37 7.46,-20.44 -1.84,-16.50 -10.32,-14.81 -16.89,-12.09 -23.92,-6.28 -30.01,-0.12 -35.90,6.11 -40.33,12.34 -44.66,18.86 -49.16,25.60 -53.19,32.70 -55.06,40.36 -55.65,47.09 -54.79,53.41 -51.92,59.47 -48.45,64.62 -43.69,70.96 -38.07,79.38 -31.57,87.39 -25.34,94.23 -19.79,99.50 -12.95,104.20 -5.04,106.46 3.18,107.67 11.39,107.28 16.11,106.27 20.90,105.25 26.77,101.83 32.00,97.30 38.22,93.30 47.15,91.04 55.63,91.45 62.87,93.12 70.42,97.55 76.55,104.13 80.70,108.18 84.28,111.69 88.79,117.05 92.81,121.82 95.93,125.85 99.32,130.25 102.91,135.78 106.17,140.84 112.55,149.58 120.05,161.50 125.33,168.98 133.60,174.17 143.82,176.59 152.07,175.15 160.69,170.19 166.95,160.24 170.40,153.49 174.30,142.61 178.82,131.16 181.21,125.59 183.97,119.15 187.49,105.40 188.71,97.35 192.81,88.00 202.59,78.97 215.09,75.98 229.86,77.76 239.74,81.61 247.15,88.39 249.11,96.21 254.81,101.56 263.57,104.65 273.74,102.01 280.55,97.04 284.01,90.66 282.58,85.02 276.62,80.31 268.58,77.26 259.90,69.39 257.48,59.72 258.26,50.10 259.41,45.60 262.22,39.75 266.72,36.79 273.75,35.17 285.80,35.56 296.46,38.25 307.52,42.32 312.97,51.09 315.82,60.33 315.63,69.95 314.01,78.77 311.30,87.79 306.93,96.19 301.03,103.30 293.58,108.20 288.20,111.74 281.69,116.03 273.34,119.94 266.04,122.56 260.23,123.31 254.53,122.69 246.54,121.59 238.49,121.07 232.60,121.75 228.62,123.13 221.64,126.49 219.76,128.54 218.97,130.09 219.06,132.54 219.66,134.47 221.23,136.49 224.30,137.87 228.20,139.11 232.44,139.67 236.49,139.70 242.30,138.31 248.02,136.94 254.26,135.45 259.91,134.10 267.37,132.31 273.29,130.85 279.82,129.25 285.85,127.77 293.60,125.86 300.36,124.01 308.96,121.65 312.62,120.28 317.49,118.43 319.88,117.16 321.84,114.22 322.83,110.66 322.91,105.95 322.88,101.12 322.87,96.40 322.82,90.89 322.78,84.88 322.75,79.03 322.72,74.13 322.69,68.29 322.65,61.38 322.60,52.03 322.65,43.62 322.39,37.03 319.96,32.45 315.30,30.78 308.79,30.76 300.29,30.73 292.79,30.70 285.54,30.68 273.50,30.64 261.48,30.28 251.26,30.19 240.01,30.09 231.76,30.02 222.06,29.93 214.15,30.13 209.46,32.54 204.67,36.32 198.84,41.66 195.90,45.92 194.29,50.14 194.61,54.89 197.32,60.64 197.56,69.26 190.66,73.67 184.81,74.99 179.81,75.71 178.25,77.11 175.59,82.53 171.63,88.66 161.67,88.93 152.99,86.64 145.46,83.02 139.17,78.64 133.50,73.79 126.35,69.12 119.79,63.48 118.52,56.93 118.96,50.10 117.11,44.74 112.20,43.13 107.94,42.29 103.79,45.38 100.39,52.68 93.11,59.20 84.75,63.69 76.52,65.69"/>
        <lane id="25304430_1" index="1" disallow="tram rail_urban rail rail_electric rail_fast ship" speed="16.67" length="3745.89" shape="27.10,69.90 17.28,68.03 9.56,70.09 4.57,76.25 2.55,82.81 -1.56,87.44 -9.32,87.98 -15.22,85.83 -19.54,80.51 -18.47,74.23 -15.94,70.29 -11.83,66.34 -5.07,64.13 0.46,63.89 5.18,61.34 7.36,56.81 5.06,51.44 2.45,45.33 0.22,39.25 -1.03,30.58 0.00,21.78 1.93,16.34 5.40,10.75 8.28,6.98 12.47,3.97 17.26,1.75 22.71,0.34 29.36,0.00 35.07,0.86 40.00,2.00 46.00,4.00 52.00,6.00 57.34,8.00 63.34,10.27 70.28,12.94 77.34,15.07 86.13,17.07 94.00,18.67 101.01,19.39 107.92,20.21 114.81,20.81 121.82,20.86 129.80,19.29 135.52,17.55 146.37,13.38 156.49,9.36 163.00,7.22 169.63,5.60 176.57,5.20 184.51,6.15 190.71,8.32 196.23,9.82 202.03,9.19 207.88,7.19 214.33,6.92 219.48,9.86 224.54,12.26 228.81,13.73 235.07,14.92 240.21,14.79 246.27,14.81 253.69,12.60 258.78,9.67 265.71,6.39 274.39,4.45 284.07,4.81 292.87,9.65 300.43,13.61 308.24,15.42 317.57,17.70 328.30,17.61 336.83,16.96 349.98,17.72 356.85,17.42 363.71,17.50 369.83,17.59 377.26,17.65 387.36,16.53 396.29,16.95 401.59,17.26 406.60,18.53 411.59,20.43 413.91,24.32 414.37,29.09 413.09,32.88 409.43,36.42 406.89,38.91 401.77,41.44 397.44,42.25 390.58,43.51 384.04,44.81 379.23,45.80 375.15,46.64 369.14,48.23 363.47,51.65 358.94,55.48 356.64,60.16 357.00,66.11 358.41,72.00 358.26,76.65 355.46,83.36 352.64,87.17 349.79,91.02 346.58,95.35 344.22,98.53 340.87,103.06 338.06,108.02 337.40,114.62 339.35,121.47 341.85,128.35 342.67,135.10 340.42,140.25 336.09,143.67 329.86,144.46 324.12,143.92 318.35,144.31 313.45,146.31 308.45,150.66 304.53,154.13 301.63,158.12 298.02,163.08 294.17,168.38 290.82,172.99 287.72,177.25 282.04,182.83 277.37,187.87 272.49,191.77 268.36,194.23 262.83,197.53 257.51,200.87 251.96,205.83 249.51,210.19 248.08,215.60 246.61,221.16 245.31,226.05 243.37,233.40 241.83,239.22 240.42,244.55 239.51,248.00 238.74,250.93 234.97,256.28 232.33,260.02 228.52,265.43 226.97,267.63 223.89,272.00 221.22,275.79 218.73,279.32 216.15,281.76 213.67,284.10 209.62,287.93 206.09,291.27 203.09,294.11 199.71,297.31 196.92,299.95 192.61,304.03 188.95,308.27 186.53,313.59 182.84,317.30 179.98,319.39 175.37,321.66 170.79,322.54 165.33,321.59 161.93,319.73 157.87,316.17 152.19,312.04 148.04,309.02 143.36,302.70 140.11,295.96 137.56,290.36 137.82,283.39 139.46,276.75 142.92,270.88 145.66,265.85 147.15,261.01 147.44,255.80 145.98,249.73 142.38,244.54 135.77,240.75 130.14,238.64 125.79,234.18 123.01,228.50 122.00,222.23 124.18,216.57 127.05,208.99 127.22,201.96 126.41,196.44 124.14,191.54 120.53,185.77 116.44,181.99 111.90,179.63 106.19,178.65 102.14,178.19 97.62,178.82 92.57,181.46 89.45,185.72 87.05,190.99 83.32,195.69 79.51,198.99 73.44,201.74 66.05,203.12 59.86,203.54 52.43,202.81 45.78,200.18 40.59,196.27 36.55,190.47 33.59,185.02 31.68,178.57 29.88,172.75 28.26,165.97 26.58,160.27 24.52,153.55 22.41,147.37 19.98,142.37 16.54,137.15 13.07,132.89 9.95,130.26 5.68,127.91 0.28,127.17 -4.75,127.56 -8.72,127.86 -15.18,128.06 -20.28,127.51 -25.79,125.87 -31.24,122.71 -33.85,119.36 -35.88,116.77 -37.56,113.36 -39.55,109.29 -42.48,103.31 -44.67,98.84 -46.93,94.22 -48.93,90.15 -51.52,84.86 -53.78,80.25 -55.91,76.28 -59.15,72.67 -62.42,69.13 -66.39,65.55 -70.61,64.10 -77.25,62.85 -83.93,64.76 -89.09,68.44 -90.94,74.36 -90.24,82.90 -89.56,88.14 -89.08,92.11 -88.55,96.46 -87.96,101.35 -87.27,107.09 -86.65,112.24 -86.10,116.74 -85.47,121.93 -83.54,125.66 -81.12,128.59 -77.49,130.87 -74.01,133.07 -69.13,135.25 -63.46,137.77 -57.78,140.30 -52.39,142.70 -45.87,145.60 -40.02,148.21 -33.73,150.60 -26.02,153.67 -22.70,154.87 -17.89,156.60 -13.29,157.21 -8.85,157.79 -0.78,158.37 6.03,161.04 10.80,164.56 14.68,168.44 16.40,173.07 15.38,178.25 12.38,182.83 8.18,184.89 1.93,187.22 -2.08,188.71 -7.35,190.67 -12.42,192.56 -19.72,193.61 -25.34,192.62 -31.31,189.77 -36.14,187.46 -42.32,184.51 -48.41,181.60 -54.66,178.61 -59.74,176.18 -65.24,173.56 -68.67,171.92 -74.34,169.21 -80.17,166.42 -85.26,163.99 -89.86,161.79 -96.11,158.80 -101.28,156.33 -107.47,152.38 -111.11,146.19 -113.54,140.24 -113.51,135.69 -113.49,132.36 -113.45,126.31 -113.41,120.57 -113.37,114.21 -113.33,108.02 -113.28,103.34 -113.21,95.64 -113.15,89.84 -113.09,83.52 -113.03,76.81 -113.01,69.68 -113.70,61.92 -113.86,55.12 -113.08,46.97 -111.26,39.84 -108.25,33.42 -104.72,27.77 -101.31,22.13 -97.05,16.51 -92.89,11.71 -87.23,7.08 -81.18,2.23 -75.01,-1.86 -68.48,-6.37 -63.11,-9.69 -57.96,-12.87 -52.65,-16.15 -47.25,-19.48 -41.04,-23.32 -35.97,-26.45 -31.76,-29.05 -25.76,-32.76 -20.00,-36.32 -15.57,-39.06 -12.63,-42.79 -8.86,-47.57 -5.35,-52.02 -0.87,-57.70 3.78,-63.60 7.75,-68.64 10.30,-72.86 13.07,-77.45 17.06,-84.04 21.01,-90.58 24.58,-96.50 28.62,-103.20 32.33,-109.33 35.82,-115.07 39.12,-120.01 42.76,-126.38 42.89,-133.29 41.46,-141.82 43.24,-148.53 49.31,-154.31 56.91,-155.77 64.89,-156.49 72.66,-153.37 77.56,-148.85 80.07,-140.66 76.21,-134.78 70.55,-131.26 62.31,-130.85 55.81,-128.64 50.95,-121.03 46.47,-113.57 43.94,-109.25 41.45,-105.00 38.93,-100.70 36.02,-95.74 33.33,-91.14 30.55,-86.04 28.36,-81.49 26.66,-77.95 25.59,-73.88 24.24,-68.74 22.44,-61.14 21.46,-54.05 19.62,-44.64 16.02,-36.41 11.71,-28.40 5.74,-23.19 -2.79,-19.57 -11.25,-17.89 -18.56,-14.86 -26.08,-8.64 -32.31,-2.35 -38.38,4.07 -42.97,10.53 -47.32,17.09 -51.89,23.92 -56.19,31.51 -58.23,39.84 -58.87,47.17 -57.89,54.33 -54.71,61.06 -51.06,66.48 -46.30,72.81 -40.65,81.28 -34.00,89.48 -27.63,96.47 -21.81,102.00 -14.33,107.13 -5.72,109.59 3.02,110.88 11.80,110.46 16.78,109.40 22.07,108.27 28.64,104.44 33.92,99.87 39.51,96.27 47.47,94.26 55.19,94.63 61.67,96.13 68.40,100.07 74.26,106.37 78.46,110.47 81.93,113.87 86.34,119.11 90.32,123.83 93.40,127.81 96.71,132.10 100.22,137.52 103.53,142.65 109.90,151.38 117.39,163.28 123.09,171.35 132.35,177.16 143.72,179.86 153.18,178.20 162.98,172.57 169.73,161.82 173.34,154.77 177.30,143.74 181.78,132.38 184.15,126.85 187.01,120.18 190.63,106.04 191.81,98.25 195.47,89.90 204.15,81.89 215.28,79.23 229.08,80.89 238.02,84.37 244.28,90.10 246.23,97.90 253.11,104.35 263.43,107.99 275.13,104.95 283.02,99.20 287.42,91.09 285.42,83.18 278.22,77.49 270.28,74.48 262.77,67.67 260.71,59.45 261.43,50.63 262.43,46.70 264.72,41.94 268.00,39.78 274.06,38.38 285.35,38.75 295.51,41.31 305.38,44.94 310.03,52.43 312.61,60.78 312.44,69.63 310.89,78.02 308.32,86.58 304.25,94.41 298.87,100.89 291.82,105.53 286.44,109.07 280.12,113.23 272.12,116.98 265.29,119.43 260.20,120.09 254.92,119.51 246.86,118.40 238.41,117.86 231.88,118.61 227.40,120.17 219.70,123.87 217.11,126.70 215.74,129.38 215.88,133.08 216.78,135.98 219.20,139.08 223.16,140.86 227.50,142.24 232.22,142.87 236.86,142.90 243.05,141.42 248.76,140.05 255.00,138.56 260.65,137.21 268.12,135.42 274.05,133.96 280.58,132.36 286.61,130.88 294.40,128.96 301.21,127.10 309.95,124.70 313.75,123.27 318.82,121.35 322.09,119.60 324.79,115.57 326.02,111.12 326.11,105.97 326.08,101.11 326.07,96.38 326.02,90.87 325.98,84.86 325.95,79.01 325.92,74.11 325.89,68.27 325.85,61.36 325.80,52.03 325.85,43.57 325.56,36.17 322.20,29.86 315.86,27.58 308.80,27.56 300.30,27.53 292.80,27.50 285.55,27.48 273.55,27.44 261.54,27.08 251.29,26.99 240.04,26.89 231.79,26.82 222.03,26.73 213.34,26.95 207.72,29.84 202.60,33.88 196.41,39.54 193.05,44.42 191.05,49.66 191.46,55.71 194.14,61.40 194.31,67.54 189.41,70.67 184.23,71.84 178.39,72.68 175.65,75.15 172.80,80.95 169.86,85.51 162.04,85.72 154.10,83.62 147.08,80.25 141.13,76.11 135.42,71.22 128.28,66.56 122.72,61.78 121.74,56.72 122.19,49.66 119.62,42.19 113.01,40.03 107.17,38.88 101.23,43.30 97.77,50.73 91.26,56.56 83.60,60.68 75.76,62.58"/>