<?xml version="1.0" encoding="UTF-8"?>

<!-- generated on Tue 03 Dec 2019 16:21:11 GMT by Eclipse SUMO netedit Version 1.3.1
<configuration xmlns:xsi="http://www.w3.org/2001/XMLSchema-instance" xsi:noNamespaceSchemaLocation="http://sumo.dlr.de/xsd/netconvertConfiguration.xsd">

    <input>
        <sumo-net-file value="/home/benedikt/dev/DriveML/tracks/3lane_new_b_bwd/map.net.xml"/>
    </input>

    <output>
        <output-file value="/home/benedikt/dev/DriveML/tracks/3lane_new_b_bwd/map.net.xml"/>
    </output>

    <processing>
        <geometry.max-grade.fix value="false"/>
        <offset.disable-normalization value="true"/>
        <opposites.guess.fix-lengths value="true"/>
        <lefthand value="false"/>
    </processing>

    <junctions>
        <no-turnarounds value="true"/>
        <junctions.corner-detail value="5"/>
        <junctions.limit-turn-speed value="5.5"/>
        <rectangular-lane-cut value="false"/>
    </junctions>

    <pedestrian>
        <walkingareas value="false"/>
    </pedestrian>

</configuration>
-->

<net version="1.3" junctionCornerDetail="5" limitTurnSpeed="5.50" xmlns:xsi="http://www.w3.org/2001/XMLSchema-instance" xsi:noNamespaceSchemaLocation="http://sumo.dlr.de/xsd/net_file.xsd">

    <location netOffset="-630882.85,-4856133.12" convBoundary="-125.29,-100.37,254.78,121.29" origBoundary="-79.371708,43.846679,-79.369237,43.847436" projParameter="+proj=utm +zone=17 +ellps=WGS84 +datum=WGS84 +units=m +no_defs"/>

    <type id="highway.bridleway" priority="1" numLanes="1" speed="2.78" allow="pedestrian" oneway="1" width="2.00"/>
    <type id="highway.bus_guideway" priority="1" numLanes="1" speed="27.78" allow="bus" oneway="1"/>
    <type id="highway.cycleway" priority="1" numLanes="1" speed="8.33" allow="bicycle" oneway="0" width="1.00"/>
    <type id="highway.footway" priority="1" numLanes="1" speed="2.78" allow="pedestrian" oneway="1" width="2.00"/>
    <type id="highway.ford" priority="1" numLanes="1" speed="2.78" allow="army" oneway="0"/>
    <type id="highway.living_street" priority="2" numLanes="1" speed="2.78" disallow="tram rail_urban rail rail_electric ship" oneway="0"/>
    <type id="highway.motorway" priority="14" numLanes="2" speed="39.44" allow="private emergency authority army vip passenger hov taxi bus coach delivery truck trailer motorcycle evehicle custom1 custom2" oneway="1"/>
    <type id="highway.motorway_link" priority="9" numLanes="1" speed="22.22" allow="private emergency authority army vip passenger hov taxi bus coach delivery truck trailer motorcycle evehicle custom1 custom2" oneway="1"/>
    <type id="highway.path" priority="1" numLanes="1" speed="2.78" allow="pedestrian bicycle" oneway="1" width="2.00"/>
    <type id="highway.pedestrian" priority="1" numLanes="1" speed="2.78" allow="pedestrian" oneway="1" width="2.00"/>
    <type id="highway.primary" priority="12" numLanes="2" speed="27.78" disallow="tram rail_urban rail rail_electric ship" oneway="0"/>
    <type id="highway.primary_link" priority="7" numLanes="1" speed="22.22" disallow="tram rail_urban rail rail_electric ship" oneway="0"/>
    <type id="highway.raceway" priority="15" numLanes="2" speed="83.33" allow="vip" oneway="0"/>
    <type id="highway.residential" priority="3" numLanes="1" speed="13.89" disallow="tram rail_urban rail rail_electric ship" oneway="0"/>
    <type id="highway.secondary" priority="11" numLanes="2" speed="27.78" disallow="tram rail_urban rail rail_electric ship" oneway="0"/>
    <type id="highway.secondary_link" priority="6" numLanes="1" speed="22.22" disallow="tram rail_urban rail rail_electric ship" oneway="0"/>
    <type id="highway.service" priority="1" numLanes="1" speed="5.56" allow="pedestrian delivery bicycle" oneway="0"/>
    <type id="highway.stairs" priority="1" numLanes="1" speed="1.39" allow="pedestrian" oneway="1" width="2.00"/>
    <type id="highway.step" priority="1" numLanes="1" speed="1.39" allow="pedestrian" oneway="1" width="2.00"/>
    <type id="highway.steps" priority="1" numLanes="1" speed="1.39" allow="pedestrian" oneway="1" width="2.00"/>
    <type id="highway.tertiary" priority="10" numLanes="1" speed="22.22" disallow="tram rail_urban rail rail_electric ship" oneway="0"/>
    <type id="highway.tertiary_link" priority="5" numLanes="1" speed="22.22" disallow="tram rail_urban rail rail_electric ship" oneway="0"/>
    <type id="highway.track" priority="1" numLanes="1" speed="5.56" disallow="tram rail_urban rail rail_electric ship" oneway="0"/>
    <type id="highway.trunk" priority="13" numLanes="2" speed="27.78" disallow="pedestrian bicycle tram rail_urban rail rail_electric ship" oneway="0"/>
    <type id="highway.trunk_link" priority="8" numLanes="1" speed="22.22" disallow="pedestrian bicycle tram rail_urban rail rail_electric ship" oneway="0"/>
    <type id="highway.unclassified" priority="4" numLanes="1" speed="13.89" disallow="tram rail_urban rail rail_electric ship" oneway="0"/>
    <type id="highway.unsurfaced" priority="1" numLanes="1" speed="8.33" disallow="tram rail_urban rail rail_electric ship" oneway="0"/>
    <type id="railway.light_rail" priority="19" numLanes="1" speed="27.78" allow="rail_urban" oneway="1"/>
    <type id="railway.preserved" priority="16" numLanes="1" speed="27.78" allow="rail" oneway="1"/>
    <type id="railway.rail" priority="20" numLanes="1" speed="83.33" allow="rail rail_electric" oneway="1"/>
    <type id="railway.subway" priority="18" numLanes="1" speed="27.78" allow="rail_urban" oneway="1"/>
    <type id="railway.tram" priority="17" numLanes="1" speed="13.89" allow="tram" oneway="1"/>

    <edge id=":4370324319_0" function="internal">
        <lane id=":4370324319_0_0" index="0" disallow="tram rail_urban rail rail_electric rail_fast ship" speed="16.67" length="0.25" shape="82.79,87.94 82.42,88.12"/>
        <lane id=":4370324319_0_1" index="1" disallow="tram rail_urban rail rail_electric rail_fast ship" speed="16.67" length="0.25" shape="81.35,85.09 81.13,85.19"/>
        <lane id=":4370324319_0_2" index="2" disallow="tram rail_urban rail rail_electric rail_fast ship" speed="16.67" length="0.25" shape="79.91,82.23 79.84,82.26"/>
    </edge>
    <edge id=":446557694_0" function="internal">
        <lane id=":446557694_0_0" index="0" disallow="tram rail_urban rail rail_electric rail_fast ship" speed="16.67" length="0.67" shape="117.13,70.58 116.85,70.77 116.66,70.89 116.46,71.00 116.17,71.15"/>
        <lane id=":446557694_0_1" index="1" disallow="tram rail_urban rail rail_electric rail_fast ship" speed="16.67" length="0.67" shape="115.31,67.95 115.14,68.06 115.03,68.13 114.91,68.20 114.73,68.29"/>
        <lane id=":446557694_0_2" index="2" disallow="tram rail_urban rail rail_electric rail_fast ship" speed="16.67" length="0.67" shape="113.48,65.32 113.43,65.36 113.39,65.38 113.35,65.40 113.29,65.43"/>
    </edge>

    <edge id="25304430" from="446557694" to="4370324319" priority="11" type="highway.secondary" spreadType="center">
        <lane id="25304430_0" index="0" disallow="tram rail_urban rail rail_electric rail_fast ship" speed="16.67" length="37.37" shape="116.17,71.15 82.79,87.94"/>
        <lane id="25304430_1" index="1" disallow="tram rail_urban rail rail_electric rail_fast ship" speed="16.67" length="37.37" shape="114.73,68.29 81.35,85.09"/>
        <lane id="25304430_2" index="2" disallow="tram rail_urban rail rail_electric rail_fast ship" speed="16.67" length="37.37" shape="113.29,65.43 79.91,82.23"/>
    </edge>
    <edge id="38014010" from="4370324319" to="446557694" priority="11" type="highway.secondary" spreadType="center" shape="81.24,85.14 75.85,87.52 71.73,87.77 67.63,87.68 63.26,88.65 58.90,91.71 55.39,96.20 53.47,101.62 53.55,107.11 55.31,111.92 58.09,116.01 61.62,119.06 65.63,120.87 70.56,121.29 75.37,120.27 80.00,118.00 84.11,113.29 85.77,109.39 88.00,106.00 92.00,102.00 184.00,58.00 194.56,52.33 198.92,50.45 202.73,47.17 206.53,44.79 212.34,41.44 219.10,39.17 224.45,36.07 227.88,31.54 230.96,24.80 233.16,18.28 236.30,12.34 238.45,7.28 241.63,2.56 245.78,-0.28 250.77,-3.62 253.90,-7.57 254.78,-12.56 254.08,-17.47 225.95,-96.75 221.10,-100.28 216.31,-100.37 213.27,-98.16 210.77,-94.80 207.88,-92.81 204.50,-92.19 200.05,-93.35 196.42,-96.49 192.04,-97.70 188.53,-97.04 130.12,-58.20 124.47,-57.14 119.38,-55.01 115.05,-54.63 109.03,-57.26 102.76,-58.03 98.26,-55.80 93.77,-52.27 88.74,-49.98 82.69,-48.92 76.71,-51.69 70.52,-51.25 63.55,-48.30 57.31,-50.24 52.58,-54.47 48.03,-55.93 43.21,-55.70 38.89,-52.54 36.08,-48.05 32.41,-45.61 28.36,-45.06 25.66,-46.51 23.00,-49.31 20.38,-53.70 17.43,-55.06 13.85,-55.91 10.76,-55.64 8.24,-53.36 6.29,-49.80 3.06,-46.12 -1.49,-44.95 -5.37,-45.05 -10.18,-47.30 -14.89,-51.29 -19.35,-53.74 -24.79,-53.94 -87.35,-40.00 -91.84,-40.22 -96.66,-41.66 -101.48,-43.11 -108.99,-42.79 -114.21,-39.55 -116.33,-33.83 -124.61,35.36 -125.29,42.35 -123.09,48.12 -117.12,52.95 -109.86,56.15 -81.99,63.64 -51.26,66.87 -13.85,59.42 -0.69,46.72 2.77,34.41 3.14,20.67 -0.06,11.38 -6.39,7.59 -14.71,6.60 -21.53,8.76 -26.35,12.23 -29.54,18.50 -31.85,25.90 -40.11,32.23 -51.01,32.99 -61.85,31.81 -72.17,25.64 -76.86,15.05 -77.50,1.78 -75.71,-7.11 -69.67,-14.89 -59.61,-19.91 -49.31,-21.44 -40.94,-20.79 3.18,-16.70 23.23,-17.59 37.20,-18.22 45.00,-15.93 50.81,-12.57 55.99,-7.11 58.87,0.45 59.42,7.72 57.41,13.54 53.29,17.48 46.09,22.43 42.75,27.91 43.46,34.97 47.66,41.43 55.44,45.68 64.58,45.83 71.83,43.15 76.83,38.77 80.25,33.54 81.89,27.83 81.85,20.98 79.40,13.61 75.02,7.69 70.10,2.87 68.02,-2.28 66.41,-8.61 66.85,-13.67 70.42,-18.78 75.07,-20.73 80.75,-21.12 85.65,-19.92 89.35,-17.66 95.10,-15.16 101.22,-13.89 106.79,-13.17 114.90,-13.57 122.55,-12.45 130.02,-12.84 137.98,-15.43 145.49,-18.16 152.31,-19.50 160.93,-16.13 173.22,-3.62 179.34,5.87 182.42,12.05 187.15,16.89 192.55,19.73 196.03,20.66 200.15,20.45 206.04,20.02 210.92,22.58 211.94,26.54 210.97,30.72 206.21,33.99 199.94,35.20 193.90,33.50 154.00,6.00 149.54,4.32 143.73,4.34 138.41,6.48 134.90,9.93 133.20,13.70 130.00,16.41 126.18,16.92 122.07,14.90 119.11,10.70 115.17,6.69 110.00,3.79 105.02,2.98 101.38,5.03 99.80,8.97 100.00,14.00 101.92,18.74 105.31,22.48 110.48,25.93 115.78,28.34 120.55,31.72 124.00,36.00 126.66,40.94 128.55,46.96 128.21,53.03 126.00,58.00 121.31,63.79 115.03,68.14">
        <lane id="38014010_0" index="0" disallow="tram rail_urban rail rail_electric rail_fast ship" speed="16.67" length="1830.75" shape="82.42,88.12 76.62,90.68 71.79,90.97 67.95,90.89 64.58,91.64 61.13,94.06 58.23,97.76 56.68,102.15 56.74,106.52 58.18,110.45 60.50,113.86 63.36,116.33 66.45,117.73 70.36,118.06 74.32,117.22 78.01,115.41 81.36,111.57 82.94,107.87 85.51,103.97 90.12,99.35 182.55,55.15 193.17,49.45 197.20,47.71 200.83,44.59 204.88,42.05 211.02,38.51 217.78,36.24 222.29,33.62 225.12,29.89 227.98,23.62 230.21,17.01 233.41,10.96 235.62,5.75 239.32,0.26 243.99,-2.93 248.57,-6.00 250.89,-8.92 251.54,-12.61 250.96,-16.70 223.27,-94.75 220.03,-97.10 217.32,-97.15 215.55,-95.86 213.02,-92.46 209.13,-89.79 204.38,-88.91 198.52,-90.44 194.87,-93.60 191.90,-94.42 189.76,-94.02 131.35,-55.17 125.39,-54.06 120.16,-51.87 114.52,-51.37 108.18,-54.14 103.32,-54.74 99.98,-53.08 95.45,-49.52 89.69,-46.90 82.25,-45.59 76.11,-48.44 71.28,-48.10 63.72,-44.90 55.70,-47.39 50.95,-51.63 47.60,-52.71 44.32,-52.55 41.28,-50.32 38.43,-45.77 33.57,-42.54 27.76,-41.75 23.69,-43.93 20.43,-47.36 18.14,-51.21 16.38,-52.02 13.61,-52.68 12.11,-52.55 10.79,-51.35 8.93,-47.95 4.81,-43.27 -1.13,-41.74 -6.12,-41.87 -11.92,-44.58 -16.71,-48.64 -20.23,-50.57 -24.50,-50.73 -87.08,-36.78 -92.38,-37.04 -97.58,-38.59 -101.88,-39.89 -108.02,-39.63 -111.59,-37.41 -113.20,-33.07 -121.43,35.71 -122.03,41.91 -120.41,46.17 -115.44,50.19 -108.79,53.12 -81.40,60.48 -51.41,63.64 -15.40,56.47 -3.54,45.02 -0.42,33.93 -0.07,21.16 -2.71,13.53 -7.45,10.69 -14.40,9.86 -20.08,11.66 -23.85,14.37 -26.57,19.71 -29.10,27.82 -38.93,35.36 -51.07,36.20 -62.89,34.92 -74.68,27.87 -80.03,15.80 -80.72,1.54 -78.70,-8.48 -71.75,-17.43 -60.58,-23.00 -49.42,-24.66 -40.67,-23.98 3.26,-19.91 23.09,-20.79 37.59,-21.44 46.27,-18.89 52.81,-15.11 58.75,-8.85 62.03,-0.25 62.66,8.14 60.18,15.32 55.32,19.97 48.47,24.68 46.04,28.66 46.57,33.88 49.90,39.01 56.28,42.49 64.03,42.62 70.17,40.35 74.39,36.65 77.31,32.19 78.69,27.39 78.65,21.51 76.52,15.10 72.60,9.80 67.38,4.69 64.97,-1.28 63.18,-8.35 63.74,-14.80 68.33,-21.37 74.32,-23.89 81.03,-24.35 86.89,-22.91 90.83,-20.51 96.07,-18.23 101.75,-17.05 106.92,-16.38 115.05,-16.78 122.70,-15.66 129.43,-16.01 136.94,-18.46 144.63,-21.25 152.61,-22.82 162.73,-18.86 175.73,-5.63 182.13,4.28 185.06,10.17 189.09,14.29 193.72,16.73 196.37,17.44 199.95,17.26 206.72,16.76 213.66,20.41 215.23,26.50 213.81,32.65 207.47,37.01 199.80,38.49 192.52,36.44 152.51,8.86 148.96,7.52 144.35,7.54 140.20,9.21 137.57,11.79 135.82,15.67 131.35,19.46 125.64,20.22 119.93,17.41 116.64,12.76 113.21,9.26 108.93,6.86 105.61,6.32 103.93,7.27 103.02,9.53 103.18,13.32 104.67,17.01 107.42,20.04 112.04,23.12 117.38,25.55 122.76,29.37 126.68,34.22 129.62,39.69 131.78,46.56 131.37,53.79 128.75,59.69 123.51,66.16 117.13,70.58"/>
        <lane id="38014010_1" index="1" disallow="tram rail_urban rail rail_electric rail_fast ship" speed="16.67" length="1830.75" shape="81.13,85.19 75.85,87.52 71.73,87.77 67.63,87.68 63.26,88.65 58.90,91.71 55.39,96.20 53.47,101.62 53.55,107.11 55.31,111.92 58.09,116.01 61.62,119.06 65.63,120.87 70.56,121.29 75.37,120.27 80.00,118.00 84.11,113.29 85.77,109.39 88.00,106.00 92.00,102.00 184.00,58.00 194.56,52.33 198.92,50.45 202.73,47.17 206.53,44.79 212.34,41.44 219.10,39.17 224.45,36.07 227.88,31.54 230.96,24.80 233.16,18.28 236.30,12.34 238.45,7.28 241.63,2.56 245.78,-0.28 250.77,-3.62 253.90,-7.57 254.78,-12.56 254.08,-17.47 225.95,-96.75 221.10,-100.28 216.31,-100.37 213.27,-98.16 210.77,-94.80 207.88,-92.81 204.50,-92.19 200.05,-93.35 196.42,-96.49 192.04,-97.70 188.53,-97.04 130.12,-58.20 124.47,-57.14 119.38,-55.01 115.05,-54.63 109.03,-57.26 102.76,-58.03 98.26,-55.80 93.77,-52.27 88.74,-49.98 82.69,-48.92 76.71,-51.69 70.52,-51.25 63.55,-48.30 57.31,-50.24 52.58,-54.47 48.03,-55.93 43.21,-55.70 38.89,-52.54 36.08,-48.05 32.41,-45.61 28.36,-45.06 25.66,-46.51 23.00,-49.31 20.38,-53.70 17.43,-55.06 13.85,-55.91 10.76,-55.64 8.24,-53.36 6.29,-49.80 3.06,-46.12 -1.49,-44.95 -5.37,-45.05 -10.18,-47.30 -14.89,-51.29 -19.35,-53.74 -24.79,-53.94 -87.35,-40.00 -91.84,-40.22 -96.66,-41.66 -101.48,-43.11 -108.99,-42.79 -114.21,-39.55 -116.33,-33.83 -124.61,35.36 -125.29,42.35 -123.09,48.12 -117.12,52.95 -109.86,56.15 -81.99,63.64 -51.26,66.87 -13.85,59.42 -0.69,46.72 2.77,34.41 3.14,20.67 -0.06,11.38 -6.39,7.59 -14.71,6.60 -21.53,8.76 -26.35,12.23 -29.54,18.50 -31.85,25.90 -40.11,32.23 -51.01,32.99 -61.85,31.81 -72.17,25.64 -76.86,15.05 -77.50,1.78 -75.71,-7.11 -69.67,-14.89 -59.61,-19.91 -49.31,-21.44 -40.94,-20.79 3.18,-16.70 23.23,-17.59 37.20,-18.22 45.00,-15.93 50.81,-12.57 55.99,-7.11 58.87,0.45 59.42,7.72 57.41,13.54 53.29,17.48 46.09,22.43 42.75,27.91 43.46,34.97 47.66,41.43 55.44,45.68 64.58,45.83 71.83,43.15 76.83,38.77 80.25,33.54 81.89,27.83 81.85,20.98 79.40,13.61 75.02,7.69 70.10,2.87 68.02,-2.28 66.41,-8.61 66.85,-13.67 70.42,-18.78 75.07,-20.73 80.75,-21.12 85.65,-19.92 89.35,-17.66 95.10,-15.16 101.22,-13.89 106.79,-13.17 114.90,-13.57 122.55,-12.45 130.02,-12.84 137.98,-15.43 145.49,-18.16 152.31,-19.50 160.93,-16.13 173.22,-3.62 179.34,5.87 182.42,12.05 187.15,16.89 192.55,19.73 196.03,20.66 200.15,20.45 206.04,20.02 210.92,22.58 211.94,26.54 210.97,30.72 206.21,33.99 199.94,35.20 193.90,33.50 154.00,6.00 149.54,4.32 143.73,4.34 138.41,6.48 134.90,9.93 133.20,13.70 130.00,16.41 126.18,16.92 122.07,14.90 119.11,10.70 115.17,6.69 110.00,3.79 105.02,2.98 101.38,5.03 99.80,8.97 100.00,14.00 101.92,18.74 105.31,22.48 110.48,25.93 115.78,28.34 120.55,31.72 124.00,36.00 126.66,40.94 128.55,46.96 128.21,53.03 126.00,58.00 121.31,63.79 115.31,67.95"/>
        <lane id="38014010_2" index="2" disallow="tram rail_urban rail rail_electric rail_fast ship" speed="16.67" length="1830.75" shape="79.84,82.26 75.08,84.36 71.67,84.57 67.31,84.47 61.94,85.66 56.67,89.36 52.55,94.64 50.26,101.09 50.36,107.70 52.44,113.39 55.68,118.16 59.88,121.79 64.81,124.01 70.76,124.52 76.42,123.32 81.99,120.59 86.86,115.01 88.60,110.91 90.49,108.03 93.88,104.65 185.45,60.85 195.95,55.21 200.64,53.19 204.63,49.75 208.18,47.53 213.66,44.37 220.42,42.10 226.61,38.52 230.64,33.19 233.94,25.98 236.11,19.55 239.19,13.72 241.28,8.81 243.94,4.86 247.57,2.37 252.97,-1.24 256.91,-6.22 258.02,-12.51 257.20,-18.24 228.63,-98.75 222.17,-103.46 215.30,-103.59 210.99,-100.46 208.52,-97.14 206.63,-95.83 204.62,-95.47 201.58,-96.26 197.97,-99.38 192.18,-100.98 187.30,-100.06 128.89,-61.23 123.55,-60.22 118.60,-58.15 115.58,-57.89 109.88,-60.38 102.20,-61.32 96.54,-58.52 92.09,-55.02 87.79,-53.06 83.13,-52.25 77.31,-54.94 69.76,-54.40 63.38,-51.70 58.92,-53.09 54.21,-57.31 48.46,-59.15 42.10,-58.85 36.50,-54.76 33.73,-50.33 31.25,-48.68 28.96,-48.37 27.63,-49.09 25.57,-51.26 22.62,-56.19 18.48,-58.10 14.09,-59.14 9.41,-58.73 5.69,-55.37 3.65,-51.65 1.31,-48.97 -1.85,-48.16 -4.62,-48.23 -8.44,-50.02 -13.07,-53.94 -18.47,-56.91 -25.08,-57.15 -87.62,-43.22 -91.30,-43.40 -95.74,-44.73 -101.08,-46.33 -109.96,-45.95 -116.83,-41.69 -119.46,-34.59 -127.79,35.01 -128.55,42.79 -125.77,50.07 -118.80,55.71 -110.93,59.18 -82.58,66.80 -51.11,70.10 -12.30,62.37 2.16,48.42 5.96,34.89 6.35,20.18 2.59,9.23 -5.33,4.49 -15.02,3.34 -22.98,5.86 -28.85,10.09 -32.51,17.29 -34.60,23.98 -41.29,29.10 -50.95,29.78 -60.81,28.70 -69.66,23.41 -73.69,14.30 -74.28,2.02 -72.72,-5.74 -67.59,-12.35 -58.64,-16.82 -49.20,-18.22 -41.21,-17.60 3.10,-13.49 23.37,-14.39 36.81,-15.00 43.73,-12.97 48.81,-10.03 53.23,-5.37 55.71,1.15 56.18,7.30 54.64,11.76 51.26,14.99 43.71,20.18 39.46,27.16 40.35,36.06 45.42,43.85 54.60,48.87 65.13,49.04 73.49,45.95 79.27,40.89 83.19,34.89 85.09,28.27 85.05,20.45 82.28,12.12 77.44,5.58 72.82,1.05 71.07,-3.28 69.64,-8.87 69.96,-12.54 72.51,-16.19 75.82,-17.57 80.47,-17.89 84.41,-16.93 87.87,-14.81 94.13,-12.09 100.69,-10.73 106.66,-9.96 114.75,-10.36 122.40,-9.24 130.61,-9.67 139.02,-12.40 146.35,-15.07 152.01,-16.18 159.13,-13.40 170.71,-1.61 176.55,7.46 179.78,13.93 185.21,19.49 191.38,22.73 195.69,23.88 200.35,23.64 205.36,23.28 208.18,24.75 208.65,26.58 208.13,28.79 204.95,30.97 200.08,31.91 195.28,30.56 155.49,3.14 150.12,1.12 143.11,1.14 136.62,3.75 132.23,8.07 130.58,11.73 128.65,13.36 126.72,13.62 124.21,12.39 121.58,8.64 117.13,4.12 111.07,0.72 104.43,-0.36 98.83,2.79 96.58,8.41 96.82,14.68 99.17,20.47 103.20,24.92 108.92,28.74 114.18,31.13 118.34,34.07 121.32,37.78 123.70,42.19 125.32,47.36 125.05,52.27 123.25,56.31 119.11,61.42 113.48,65.32"/>
    </edge>

    <junction id="4370324319" type="priority" x="81.24" y="85.14" incLanes="25304430_0 25304430_1 25304430_2" intLanes=":4370324319_0_0 :4370324319_0_1 :4370324319_0_2" shape="83.51,89.37 79.19,80.80 83.07,89.58">
        <request index="0" response="000" foes="000" cont="0"/>
        <request index="1" response="000" foes="000" cont="0"/>
        <request index="2" response="000" foes="000" cont="0"/>
    </junction>
    <junction id="446557694" type="priority" x="115.03" y="68.14" incLanes="38014010_0 38014010_1 38014010_2" intLanes=":446557694_0_0 :446557694_0_1 :446557694_0_2" shape="118.04,71.89 112.57,64.00 116.89,72.58 117.33,72.35 117.48,72.27 117.63,72.17 117.80,72.06">
        <request index="0" response="000" foes="000" cont="0"/>
        <request index="1" response="000" foes="000" cont="0"/>
        <request index="2" response="000" foes="000" cont="0"/>
    </junction>

    <connection from="25304430" to="38014010" fromLane="0" toLane="0" via=":4370324319_0_0" dir="s" state="M"/>
    <connection from="25304430" to="38014010" fromLane="1" toLane="1" via=":4370324319_0_1" dir="s" state="M"/>
    <connection from="25304430" to="38014010" fromLane="2" toLane="2" via=":4370324319_0_2" dir="s" state="M"/>
    <connection from="38014010" to="25304430" fromLane="0" toLane="0" via=":446557694_0_0" dir="s" state="M"/>
    <connection from="38014010" to="25304430" fromLane="1" toLane="1" via=":446557694_0_1" dir="s" state="M"/>
    <connection from="38014010" to="25304430" fromLane="2" toLane="2" via=":446557694_0_2" dir="s" state="M"/>

    <connection from=":4370324319_0" to="38014010" fromLane="0" toLane="0" dir="s" state="M"/>
    <connection from=":4370324319_0" to="38014010" fromLane="1" toLane="1" dir="s" state="M"/>
    <connection from=":4370324319_0" to="38014010" fromLane="2" toLane="2" dir="s" state="M"/>
    <connection from=":446557694_0" to="25304430" fromLane="0" toLane="0" dir="s" state="M"/>
    <connection from=":446557694_0" to="25304430" fromLane="1" toLane="1" dir="s" state="M"/>
    <connection from=":446557694_0" to="25304430" fromLane="2" toLane="2" dir="s" state="M"/>

</net>
