<?xml version="1.0" encoding="UTF-8"?>

<!-- generated on Tue 03 Dec 2019 14:45:34 GMT by Eclipse SUMO netedit Version 1.3.1
<configuration xmlns:xsi="http://www.w3.org/2001/XMLSchema-instance" xsi:noNamespaceSchemaLocation="http://sumo.dlr.de/xsd/netconvertConfiguration.xsd">

    <input>
        <sumo-net-file value="/home/justin941208/PhD/DriveML/dataset_public/1lane_sharp/map.net.xml"/>
    </input>

    <output>
        <output-file value="/home/justin941208/PhD/DriveML/dataset_public/1lane_sharp_bwd/map.net.xml"/>
    </output>

    <processing>
        <geometry.max-grade.fix value="false"/>
        <offset.disable-normalization value="true"/>
        <opposites.guess.fix-lengths value="true"/>
        <lefthand value="false"/>
    </processing>

    <junctions>
        <no-turnarounds value="true"/>
        <junctions.corner-detail value="5"/>
        <junctions.limit-turn-speed value="5.5"/>
        <rectangular-lane-cut value="false"/>
    </junctions>

    <pedestrian>
        <walkingareas value="false"/>
    </pedestrian>

</configuration>
-->

<net version="1.3" junctionCornerDetail="5" limitTurnSpeed="5.50" xmlns:xsi="http://www.w3.org/2001/XMLSchema-instance" xsi:noNamespaceSchemaLocation="http://sumo.dlr.de/xsd/net_file.xsd">

    <location netOffset="-630882.85,-4856133.12" convBoundary="53.47,2.98,199.62,121.29" origBoundary="-79.371708,43.846679,-79.369237,43.847436" projParameter="+proj=utm +zone=17 +ellps=WGS84 +datum=WGS84 +units=m +no_defs"/>

    <type id="highway.bridleway" priority="1" numLanes="1" speed="2.78" allow="pedestrian" oneway="1" width="2.00"/>
    <type id="highway.bus_guideway" priority="1" numLanes="1" speed="27.78" allow="bus" oneway="1"/>
    <type id="highway.cycleway" priority="1" numLanes="1" speed="8.33" allow="bicycle" oneway="0" width="1.00"/>
    <type id="highway.footway" priority="1" numLanes="1" speed="2.78" allow="pedestrian" oneway="1" width="2.00"/>
    <type id="highway.ford" priority="1" numLanes="1" speed="2.78" allow="army" oneway="0"/>
    <type id="highway.living_street" priority="2" numLanes="1" speed="2.78" disallow="tram rail_urban rail rail_electric ship" oneway="0"/>
    <type id="highway.motorway" priority="14" numLanes="2" speed="39.44" allow="private emergency authority army vip passenger hov taxi bus coach delivery truck trailer motorcycle evehicle custom1 custom2" oneway="1"/>
    <type id="highway.motorway_link" priority="9" numLanes="1" speed="22.22" allow="private emergency authority army vip passenger hov taxi bus coach delivery truck trailer motorcycle evehicle custom1 custom2" oneway="1"/>
    <type id="highway.path" priority="1" numLanes="1" speed="2.78" allow="pedestrian bicycle" oneway="1" width="2.00"/>
    <type id="highway.pedestrian" priority="1" numLanes="1" speed="2.78" allow="pedestrian" oneway="1" width="2.00"/>
    <type id="highway.primary" priority="12" numLanes="2" speed="27.78" disallow="tram rail_urban rail rail_electric ship" oneway="0"/>
    <type id="highway.primary_link" priority="7" numLanes="1" speed="22.22" disallow="tram rail_urban rail rail_electric ship" oneway="0"/>
    <type id="highway.raceway" priority="15" numLanes="2" speed="83.33" allow="vip" oneway="0"/>
    <type id="highway.residential" priority="3" numLanes="1" speed="13.89" disallow="tram rail_urban rail rail_electric ship" oneway="0"/>
    <type id="highway.secondary" priority="11" numLanes="2" speed="27.78" disallow="tram rail_urban rail rail_electric ship" oneway="0"/>
    <type id="highway.secondary_link" priority="6" numLanes="1" speed="22.22" disallow="tram rail_urban rail rail_electric ship" oneway="0"/>
    <type id="highway.service" priority="1" numLanes="1" speed="5.56" allow="pedestrian delivery bicycle" oneway="0"/>
    <type id="highway.stairs" priority="1" numLanes="1" speed="1.39" allow="pedestrian" oneway="1" width="2.00"/>
    <type id="highway.step" priority="1" numLanes="1" speed="1.39" allow="pedestrian" oneway="1" width="2.00"/>
    <type id="highway.steps" priority="1" numLanes="1" speed="1.39" allow="pedestrian" oneway="1" width="2.00"/>
    <type id="highway.tertiary" priority="10" numLanes="1" speed="22.22" disallow="tram rail_urban rail rail_electric ship" oneway="0"/>
    <type id="highway.tertiary_link" priority="5" numLanes="1" speed="22.22" disallow="tram rail_urban rail rail_electric ship" oneway="0"/>
    <type id="highway.track" priority="1" numLanes="1" speed="5.56" disallow="tram rail_urban rail rail_electric ship" oneway="0"/>
    <type id="highway.trunk" priority="13" numLanes="2" speed="27.78" disallow="pedestrian bicycle tram rail_urban rail rail_electric ship" oneway="0"/>
    <type id="highway.trunk_link" priority="8" numLanes="1" speed="22.22" disallow="pedestrian bicycle tram rail_urban rail rail_electric ship" oneway="0"/>
    <type id="highway.unclassified" priority="4" numLanes="1" speed="13.89" disallow="tram rail_urban rail rail_electric ship" oneway="0"/>
    <type id="highway.unsurfaced" priority="1" numLanes="1" speed="8.33" disallow="tram rail_urban rail rail_electric ship" oneway="0"/>
    <type id="railway.light_rail" priority="19" numLanes="1" speed="27.78" allow="rail_urban" oneway="1"/>
    <type id="railway.preserved" priority="16" numLanes="1" speed="27.78" allow="rail" oneway="1"/>
    <type id="railway.rail" priority="20" numLanes="1" speed="83.33" allow="rail rail_electric" oneway="1"/>
    <type id="railway.subway" priority="18" numLanes="1" speed="27.78" allow="rail_urban" oneway="1"/>
    <type id="railway.tram" priority="17" numLanes="1" speed="13.89" allow="tram" oneway="1"/>

    <edge id=":4370324319_0" function="internal">
        <lane id=":4370324319_0_0" index="0" disallow="tram rail_urban rail rail_electric rail_fast ship" speed="16.67" length="0.39" shape="81.85,85.99 81.75,86.04 81.68,86.07 81.60,86.10 81.49,86.13"/>
    </edge>
    <edge id=":446557694_0" function="internal">
        <lane id=":446557694_0_0" index="0" disallow="tram rail_urban rail rail_electric rail_fast ship" speed="16.67" length="0.21" shape="114.39,68.74 114.34,68.77 114.30,68.80 114.26,68.82 114.21,68.85"/>
    </edge>

    <edge id="25304430" from="446557694" to="4370324319" priority="11" type="highway.secondary" spreadType="center">
        <lane id="25304430_0" index="0" disallow="tram rail_urban rail rail_electric rail_fast ship" speed="16.67" length="36.61" shape="114.21,68.85 81.85,85.99"/>
    </edge>
    <edge id="38014010" from="4370324319" to="446557694" priority="11" type="highway.secondary" spreadType="center" shape="81.68,86.08 75.85,87.52 71.73,87.77 67.63,87.68 63.26,88.65 58.90,91.71 55.39,96.20 53.47,101.62 53.55,107.11 55.31,111.92 58.09,116.01 61.62,119.06 65.63,120.87 70.56,121.29 75.37,120.27 80.00,118.00 84.11,113.29 85.77,109.39 88.00,106.00 92.00,102.00 184.00,58.00 194.56,52.33 198.07,49.43 199.62,45.39 199.22,41.01 197.40,37.15 193.90,33.50 154.00,6.00 149.54,4.32 143.73,4.34 138.41,6.48 134.90,9.93 133.20,13.70 130.00,16.41 126.18,16.92 122.07,14.90 119.11,10.70 115.17,6.69 110.00,3.79 105.02,2.98 101.38,5.03 99.80,8.97 100.00,14.00 101.92,18.74 105.31,22.48 110.48,25.93 115.78,28.34 120.55,31.72 124.00,36.00 126.66,40.94 128.55,46.96 128.21,53.03 126.00,58.00 121.31,63.79 114.30,68.80">
        <lane id="38014010_0" index="0" disallow="tram rail_urban rail rail_electric rail_fast ship" speed="16.67" length="426.29" shape="81.49,86.13 75.85,87.52 71.73,87.77 67.63,87.68 63.26,88.65 58.90,91.71 55.39,96.20 53.47,101.62 53.55,107.11 55.31,111.92 58.09,116.01 61.62,119.06 65.63,120.87 70.56,121.29 75.37,120.27 80.00,118.00 84.11,113.29 85.77,109.39 88.00,106.00 92.00,102.00 184.00,58.00 194.56,52.33 198.07,49.43 199.62,45.39 199.22,41.01 197.40,37.15 193.90,33.50 154.00,6.00 149.54,4.32 143.73,4.34 138.41,6.48 134.90,9.93 133.20,13.70 130.00,16.41 126.18,16.92 122.07,14.90 119.11,10.70 115.17,6.69 110.00,3.79 105.02,2.98 101.38,5.03 99.80,8.97 100.00,14.00 101.92,18.74 105.31,22.48 110.48,25.93 115.78,28.34 120.55,31.72 124.00,36.00 126.66,40.94 128.55,46.96 128.21,53.03 126.00,58.00 121.31,63.79 114.39,68.74"/>
    </edge>

    <junction id="4370324319" type="priority" x="81.68" y="86.08" incLanes="25304430_0" intLanes=":4370324319_0_0" shape="82.60,87.40 81.11,84.57 81.87,87.68 82.15,87.61 82.25,87.57 82.34,87.53 82.46,87.48">
        <request index="0" response="0" foes="0" cont="0"/>
    </junction>
    <junction id="446557694" type="priority" x="114.30" y="68.80" incLanes="38014010_0" intLanes=":446557694_0_0" shape="115.32,70.04 113.46,67.44 114.95,70.26 115.09,70.19 115.14,70.16 115.24,70.09">
        <request index="0" response="0" foes="0" cont="0"/>
    </junction>

    <connection from="25304430" to="38014010" fromLane="0" toLane="0" via=":4370324319_0_0" dir="s" state="M"/>
    <connection from="38014010" to="25304430" fromLane="0" toLane="0" via=":446557694_0_0" dir="s" state="M"/>

    <connection from=":4370324319_0" to="38014010" fromLane="0" toLane="0" dir="s" state="M"/>
    <connection from=":446557694_0" to="25304430" fromLane="0" toLane="0" dir="s" state="M"/>

</net>
