<?xml version="1.0" encoding="UTF-8"?>

<!-- generated on Tue 03 Dec 2019 16:18:30 GMT by Eclipse SUMO netedit Version 1.3.1
<configuration xmlns:xsi="http://www.w3.org/2001/XMLSchema-instance" xsi:noNamespaceSchemaLocation="http://sumo.dlr.de/xsd/netconvertConfiguration.xsd">

    <input>
        <sumo-net-file value="/home/benedikt/dev/DriveML/tracks/3lane_new_b/map.net.xml"/>
    </input>

    <output>
        <output-file value="/home/benedikt/dev/DriveML/tracks/3lane_new_b/map.net.xml"/>
    </output>

    <processing>
        <geometry.max-grade.fix value="false"/>
        <offset.disable-normalization value="true"/>
        <opposites.guess.fix-lengths value="true"/>
        <lefthand value="false"/>
    </processing>

    <junctions>
        <no-turnarounds value="true"/>
        <junctions.corner-detail value="5"/>
        <junctions.limit-turn-speed value="5.5"/>
        <rectangular-lane-cut value="false"/>
    </junctions>

    <pedestrian>
        <walkingareas value="false"/>
    </pedestrian>

</configuration>
-->

<net version="1.3" junctionCornerDetail="5" limitTurnSpeed="5.50" xmlns:xsi="http://www.w3.org/2001/XMLSchema-instance" xsi:noNamespaceSchemaLocation="http://sumo.dlr.de/xsd/net_file.xsd">

    <location netOffset="-630882.85,-4856133.12" convBoundary="-125.29,-100.37,254.78,121.29" origBoundary="-79.371708,43.846679,-79.369237,43.847436" projParameter="+proj=utm +zone=17 +ellps=WGS84 +datum=WGS84 +units=m +no_defs"/>

    <type id="highway.bridleway" priority="1" numLanes="1" speed="2.78" allow="pedestrian" oneway="1" width="2.00"/>
    <type id="highway.bus_guideway" priority="1" numLanes="1" speed="27.78" allow="bus" oneway="1"/>
    <type id="highway.cycleway" priority="1" numLanes="1" speed="8.33" allow="bicycle" oneway="0" width="1.00"/>
    <type id="highway.footway" priority="1" numLanes="1" speed="2.78" allow="pedestrian" oneway="1" width="2.00"/>
    <type id="highway.ford" priority="1" numLanes="1" speed="2.78" allow="army" oneway="0"/>
    <type id="highway.living_street" priority="2" numLanes="1" speed="2.78" disallow="tram rail_urban rail rail_electric ship" oneway="0"/>
    <type id="highway.motorway" priority="14" numLanes="2" speed="39.44" allow="private emergency authority army vip passenger hov taxi bus coach delivery truck trailer motorcycle evehicle custom1 custom2" oneway="1"/>
    <type id="highway.motorway_link" priority="9" numLanes="1" speed="22.22" allow="private emergency authority army vip passenger hov taxi bus coach delivery truck trailer motorcycle evehicle custom1 custom2" oneway="1"/>
    <type id="highway.path" priority="1" numLanes="1" speed="2.78" allow="pedestrian bicycle" oneway="1" width="2.00"/>
    <type id="highway.pedestrian" priority="1" numLanes="1" speed="2.78" allow="pedestrian" oneway="1" width="2.00"/>
    <type id="highway.primary" priority="12" numLanes="2" speed="27.78" disallow="tram rail_urban rail rail_electric ship" oneway="0"/>
    <type id="highway.primary_link" priority="7" numLanes="1" speed="22.22" disallow="tram rail_urban rail rail_electric ship" oneway="0"/>
    <type id="highway.raceway" priority="15" numLanes="2" speed="83.33" allow="vip" oneway="0"/>
    <type id="highway.residential" priority="3" numLanes="1" speed="13.89" disallow="tram rail_urban rail rail_electric ship" oneway="0"/>
    <type id="highway.secondary" priority="11" numLanes="2" speed="27.78" disallow="tram rail_urban rail rail_electric ship" oneway="0"/>
    <type id="highway.secondary_link" priority="6" numLanes="1" speed="22.22" disallow="tram rail_urban rail rail_electric ship" oneway="0"/>
    <type id="highway.service" priority="1" numLanes="1" speed="5.56" allow="pedestrian delivery bicycle" oneway="0"/>
    <type id="highway.stairs" priority="1" numLanes="1" speed="1.39" allow="pedestrian" oneway="1" width="2.00"/>
    <type id="highway.step" priority="1" numLanes="1" speed="1.39" allow="pedestrian" oneway="1" width="2.00"/>
    <type id="highway.steps" priority="1" numLanes="1" speed="1.39" allow="pedestrian" oneway="1" width="2.00"/>
    <type id="highway.tertiary" priority="10" numLanes="1" speed="22.22" disallow="tram rail_urban rail rail_electric ship" oneway="0"/>
    <type id="highway.tertiary_link" priority="5" numLanes="1" speed="22.22" disallow="tram rail_urban rail rail_electric ship" oneway="0"/>
    <type id="highway.track" priority="1" numLanes="1" speed="5.56" disallow="tram rail_urban rail rail_electric ship" oneway="0"/>
    <type id="highway.trunk" priority="13" numLanes="2" speed="27.78" disallow="pedestrian bicycle tram rail_urban rail rail_electric ship" oneway="0"/>
    <type id="highway.trunk_link" priority="8" numLanes="1" speed="22.22" disallow="pedestrian bicycle tram rail_urban rail rail_electric ship" oneway="0"/>
    <type id="highway.unclassified" priority="4" numLanes="1" speed="13.89" disallow="tram rail_urban rail rail_electric ship" oneway="0"/>
    <type id="highway.unsurfaced" priority="1" numLanes="1" speed="8.33" disallow="tram rail_urban rail rail_electric ship" oneway="0"/>
    <type id="railway.light_rail" priority="19" numLanes="1" speed="27.78" allow="rail_urban" oneway="1"/>
    <type id="railway.preserved" priority="16" numLanes="1" speed="27.78" allow="rail" oneway="1"/>
    <type id="railway.rail" priority="20" numLanes="1" speed="83.33" allow="rail rail_electric" oneway="1"/>
    <type id="railway.subway" priority="18" numLanes="1" speed="27.78" allow="rail_urban" oneway="1"/>
    <type id="railway.tram" priority="17" numLanes="1" speed="13.89" allow="tram" oneway="1"/>

    <edge id=":4370324319_0" function="internal">
        <lane id=":4370324319_0_0" index="0" disallow="tram rail_urban rail rail_electric rail_fast ship" speed="16.67" length="0.25" shape="79.84,82.26 79.91,82.23"/>
        <lane id=":4370324319_0_1" index="1" disallow="tram rail_urban rail rail_electric rail_fast ship" speed="16.67" length="0.25" shape="81.13,85.19 81.35,85.09"/>
        <lane id=":4370324319_0_2" index="2" disallow="tram rail_urban rail rail_electric rail_fast ship" speed="16.67" length="0.25" shape="82.42,88.12 82.79,87.94"/>
    </edge>
    <edge id=":446557694_0" function="internal">
        <lane id=":446557694_0_0" index="0" disallow="tram rail_urban rail rail_electric rail_fast ship" speed="16.67" length="0.67" shape="113.29,65.43 113.35,65.40 113.39,65.38 113.43,65.36 113.48,65.32"/>
        <lane id=":446557694_0_1" index="1" disallow="tram rail_urban rail rail_electric rail_fast ship" speed="16.67" length="0.67" shape="114.73,68.29 114.91,68.20 115.03,68.13 115.14,68.06 115.31,67.95"/>
        <lane id=":446557694_0_2" index="2" disallow="tram rail_urban rail rail_electric rail_fast ship" speed="16.67" length="0.67" shape="116.17,71.15 116.46,71.00 116.66,70.89 116.85,70.77 117.13,70.58"/>
    </edge>

    <edge id="25304430" from="4370324319" to="446557694" priority="11" type="highway.secondary" spreadType="center">
        <lane id="25304430_0" index="0" disallow="tram rail_urban rail rail_electric rail_fast ship" speed="16.67" length="37.37" shape="79.91,82.23 113.29,65.43"/>
        <lane id="25304430_1" index="1" disallow="tram rail_urban rail rail_electric rail_fast ship" speed="16.67" length="37.37" shape="81.35,85.09 114.73,68.29"/>
        <lane id="25304430_2" index="2" disallow="tram rail_urban rail rail_electric rail_fast ship" speed="16.67" length="37.37" shape="82.79,87.94 116.17,71.15"/>
    </edge>
    <edge id="38014010" from="446557694" to="4370324319" priority="11" type="highway.secondary" spreadType="center" shape="115.03,68.14 121.31,63.79 126.00,58.00 128.21,53.03 128.55,46.96 126.66,40.94 124.00,36.00 120.55,31.72 115.78,28.34 110.48,25.93 105.31,22.48 101.92,18.74 100.00,14.00 99.80,8.97 101.38,5.03 105.02,2.98 110.00,3.79 115.17,6.69 119.11,10.70 122.07,14.90 126.18,16.92 130.00,16.41 133.20,13.70 134.90,9.93 138.41,6.48 143.73,4.34 149.54,4.32 154.00,6.00 193.90,33.50 199.94,35.20 206.21,33.99 210.97,30.72 211.94,26.54 210.92,22.58 206.04,20.02 200.15,20.45 196.03,20.66 192.55,19.73 187.15,16.89 182.42,12.05 179.34,5.87 173.22,-3.62 160.93,-16.13 152.31,-19.50 145.49,-18.16 137.98,-15.43 130.02,-12.84 122.55,-12.45 114.90,-13.57 106.79,-13.17 101.22,-13.89 95.10,-15.16 89.35,-17.66 85.65,-19.92 80.75,-21.12 75.07,-20.73 70.42,-18.78 66.85,-13.67 66.41,-8.61 68.02,-2.28 70.10,2.87 75.02,7.69 79.40,13.61 81.85,20.98 81.89,27.83 80.25,33.54 76.83,38.77 71.83,43.15 64.58,45.83 55.44,45.68 47.66,41.43 43.46,34.97 42.75,27.91 46.09,22.43 53.29,17.48 57.41,13.54 59.42,7.72 58.87,0.45 55.99,-7.11 50.81,-12.57 45.00,-15.93 37.20,-18.22 23.23,-17.59 3.18,-16.70 -40.94,-20.79 -49.31,-21.44 -59.61,-19.91 -69.67,-14.89 -75.71,-7.11 -77.50,1.78 -76.86,15.05 -72.17,25.64 -61.85,31.81 -51.01,32.99 -40.11,32.23 -31.85,25.90 -29.54,18.50 -26.35,12.23 -21.53,8.76 -14.71,6.60 -6.39,7.59 -0.06,11.38 3.14,20.67 2.77,34.41 -0.69,46.72 -13.85,59.42 -51.26,66.87 -81.99,63.64 -109.86,56.15 -117.12,52.95 -123.09,48.12 -125.29,42.35 -124.61,35.36 -116.33,-33.83 -114.21,-39.55 -108.99,-42.79 -101.48,-43.11 -96.66,-41.66 -91.84,-40.22 -87.35,-40.00 -24.79,-53.94 -19.35,-53.74 -14.89,-51.29 -10.18,-47.30 -5.37,-45.05 -1.49,-44.95 3.06,-46.12 6.29,-49.80 8.24,-53.36 10.76,-55.64 13.85,-55.91 17.43,-55.06 20.38,-53.70 23.00,-49.31 25.66,-46.51 28.36,-45.06 32.41,-45.61 36.08,-48.05 38.89,-52.54 43.21,-55.70 48.03,-55.93 52.58,-54.47 57.31,-50.24 63.55,-48.30 70.52,-51.25 76.71,-51.69 82.69,-48.92 88.74,-49.98 93.77,-52.27 98.26,-55.80 102.76,-58.03 109.03,-57.26 115.05,-54.63 119.38,-55.01 124.47,-57.14 130.12,-58.20 188.53,-97.04 192.04,-97.70 196.42,-96.49 200.05,-93.35 204.50,-92.19 207.88,-92.81 210.77,-94.80 213.27,-98.16 216.31,-100.37 221.10,-100.28 225.95,-96.75 254.08,-17.47 254.78,-12.56 253.90,-7.57 250.77,-3.62 245.78,-0.28 241.63,2.56 238.45,7.28 236.30,12.34 233.16,18.28 230.96,24.80 227.88,31.54 224.45,36.07 219.10,39.17 212.34,41.44 206.53,44.79 202.73,47.17 198.92,50.45 194.56,52.33 184.00,58.00 92.00,102.00 88.00,106.00 85.77,109.39 84.11,113.29 80.00,118.00 75.37,120.27 70.56,121.29 65.63,120.87 61.62,119.06 58.09,116.01 55.31,111.92 53.55,107.11 53.47,101.62 55.39,96.20 58.90,91.71 63.26,88.65 67.63,87.68 71.73,87.77 75.85,87.52 81.24,85.14">
        <lane id="38014010_0" index="0" disallow="tram rail_urban rail rail_electric rail_fast ship" speed="16.67" length="1830.75" shape="113.48,65.32 119.11,61.42 123.25,56.31 125.05,52.27 125.32,47.36 123.70,42.19 121.32,37.78 118.34,34.07 114.18,31.13 108.92,28.74 103.20,24.92 99.17,20.47 96.82,14.68 96.58,8.41 98.83,2.79 104.43,-0.36 111.07,0.72 117.13,4.12 121.58,8.64 124.21,12.39 126.72,13.62 128.65,13.36 130.58,11.73 132.23,8.07 136.62,3.75 143.11,1.14 150.12,1.12 155.49,3.14 195.28,30.56 200.08,31.91 204.95,30.97 208.13,28.79 208.65,26.58 208.18,24.75 205.36,23.28 200.35,23.64 195.69,23.88 191.38,22.73 185.21,19.49 179.78,13.93 176.55,7.46 170.71,-1.61 159.13,-13.40 152.01,-16.18 146.35,-15.07 139.02,-12.40 130.61,-9.67 122.40,-9.24 114.75,-10.36 106.66,-9.96 100.69,-10.73 94.13,-12.09 87.87,-14.81 84.41,-16.93 80.47,-17.89 75.82,-17.57 72.51,-16.19 69.96,-12.54 69.64,-8.87 71.07,-3.28 72.82,1.05 77.44,5.58 82.28,12.12 85.05,20.45 85.09,28.27 83.19,34.89 79.27,40.89 73.49,45.95 65.13,49.04 54.60,48.87 45.42,43.85 40.35,36.06 39.46,27.16 43.71,20.18 51.26,14.99 54.64,11.76 56.18,7.30 55.71,1.15 53.23,-5.37 48.81,-10.03 43.73,-12.97 36.81,-15.00 23.37,-14.39 3.10,-13.49 -41.21,-17.60 -49.20,-18.22 -58.64,-16.82 -67.59,-12.35 -72.72,-5.74 -74.28,2.02 -73.69,14.30 -69.66,23.41 -60.81,28.70 -50.95,29.78 -41.29,29.10 -34.60,23.98 -32.51,17.29 -28.85,10.09 -22.98,5.86 -15.02,3.34 -5.33,4.49 2.59,9.23 6.35,20.18 5.96,34.89 2.16,48.42 -12.30,62.37 -51.11,70.10 -82.58,66.80 -110.93,59.18 -118.80,55.71 -125.77,50.07 -128.55,42.79 -127.79,35.01 -119.46,-34.59 -116.83,-41.69 -109.96,-45.95 -101.08,-46.33 -95.74,-44.73 -91.30,-43.40 -87.62,-43.22 -25.08,-57.15 -18.47,-56.91 -13.07,-53.94 -8.44,-50.02 -4.62,-48.23 -1.85,-48.16 1.31,-48.97 3.65,-51.65 5.69,-55.37 9.41,-58.73 14.09,-59.14 18.48,-58.10 22.62,-56.19 25.57,-51.26 27.63,-49.09 28.96,-48.37 31.25,-48.68 33.73,-50.33 36.50,-54.76 42.10,-58.85 48.46,-59.15 54.21,-57.31 58.92,-53.09 63.38,-51.70 69.76,-54.40 77.31,-54.94 83.13,-52.25 87.79,-53.06 92.09,-55.02 96.54,-58.52 102.20,-61.32 109.88,-60.38 115.58,-57.89 118.60,-58.15 123.55,-60.22 128.89,-61.23 187.30,-100.06 192.18,-100.98 197.97,-99.38 201.58,-96.26 204.62,-95.47 206.63,-95.83 208.52,-97.14 210.99,-100.46 215.30,-103.59 222.17,-103.46 228.63,-98.75 257.20,-18.24 258.02,-12.51 256.91,-6.22 252.97,-1.24 247.57,2.37 243.94,4.86 241.28,8.81 239.19,13.72 236.11,19.55 233.94,25.98 230.64,33.19 226.61,38.52 220.42,42.10 213.66,44.37 208.18,47.53 204.63,49.75 200.64,53.19 195.95,55.21 185.45,60.85 93.88,104.65 90.49,108.03 88.60,110.91 86.86,115.01 81.99,120.59 76.42,123.32 70.76,124.52 64.81,124.01 59.88,121.79 55.68,118.16 52.44,113.39 50.36,107.70 50.26,101.09 52.55,94.64 56.67,89.36 61.94,85.66 67.31,84.47 71.67,84.57 75.08,84.36 79.84,82.26"/>
        <lane id="38014010_1" index="1" disallow="tram rail_urban rail rail_electric rail_fast ship" speed="16.67" length="1830.75" shape="115.31,67.95 121.31,63.79 126.00,58.00 128.21,53.03 128.55,46.96 126.66,40.94 124.00,36.00 120.55,31.72 115.78,28.34 110.48,25.93 105.31,22.48 101.92,18.74 100.00,14.00 99.80,8.97 101.38,5.03 105.02,2.98 110.00,3.79 115.17,6.69 119.11,10.70 122.07,14.90 126.18,16.92 130.00,16.41 133.20,13.70 134.90,9.93 138.41,6.48 143.73,4.34 149.54,4.32 154.00,6.00 193.90,33.50 199.94,35.20 206.21,33.99 210.97,30.72 211.94,26.54 210.92,22.58 206.04,20.02 200.15,20.45 196.03,20.66 192.55,19.73 187.15,16.89 182.42,12.05 179.34,5.87 173.22,-3.62 160.93,-16.13 152.31,-19.50 145.49,-18.16 137.98,-15.43 130.02,-12.84 122.55,-12.45 114.90,-13.57 106.79,-13.17 101.22,-13.89 95.10,-15.16 89.35,-17.66 85.65,-19.92 80.75,-21.12 75.07,-20.73 70.42,-18.78 66.85,-13.67 66.41,-8.61 68.02,-2.28 70.10,2.87 75.02,7.69 79.40,13.61 81.85,20.98 81.89,27.83 80.25,33.54 76.83,38.77 71.83,43.15 64.58,45.83 55.44,45.68 47.66,41.43 43.46,34.97 42.75,27.91 46.09,22.43 53.29,17.48 57.41,13.54 59.42,7.72 58.87,0.45 55.99,-7.11 50.81,-12.57 45.00,-15.93 37.20,-18.22 23.23,-17.59 3.18,-16.70 -40.94,-20.79 -49.31,-21.44 -59.61,-19.91 -69.67,-14.89 -75.71,-7.11 -77.50,1.78 -76.86,15.05 -72.17,25.64 -61.85,31.81 -51.01,32.99 -40.11,32.23 -31.85,25.90 -29.54,18.50 -26.35,12.23 -21.53,8.76 -14.71,6.60 -6.39,7.59 -0.06,11.38 3.14,20.67 2.77,34.41 -0.69,46.72 -13.85,59.42 -51.26,66.87 -81.99,63.64 -109.86,56.15 -117.12,52.95 -123.09,48.12 -125.29,42.35 -124.61,35.36 -116.33,-33.83 -114.21,-39.55 -108.99,-42.79 -101.48,-43.11 -96.66,-41.66 -91.84,-40.22 -87.35,-40.00 -24.79,-53.94 -19.35,-53.74 -14.89,-51.29 -10.18,-47.30 -5.37,-45.05 -1.49,-44.95 3.06,-46.12 6.29,-49.80 8.24,-53.36 10.76,-55.64 13.85,-55.91 17.43,-55.06 20.38,-53.70 23.00,-49.31 25.66,-46.51 28.36,-45.06 32.41,-45.61 36.08,-48.05 38.89,-52.54 43.21,-55.70 48.03,-55.93 52.58,-54.47 57.31,-50.24 63.55,-48.30 70.52,-51.25 76.71,-51.69 82.69,-48.92 88.74,-49.98 93.77,-52.27 98.26,-55.80 102.76,-58.03 109.03,-57.26 115.05,-54.63 119.38,-55.01 124.47,-57.14 130.12,-58.20 188.53,-97.04 192.04,-97.70 196.42,-96.49 200.05,-93.35 204.50,-92.19 207.88,-92.81 210.77,-94.80 213.27,-98.16 216.31,-100.37 221.10,-100.28 225.95,-96.75 254.08,-17.47 254.78,-12.56 253.90,-7.57 250.77,-3.62 245.78,-0.28 241.63,2.56 238.45,7.28 236.30,12.34 233.16,18.28 230.96,24.80 227.88,31.54 224.45,36.07 219.10,39.17 212.34,41.44 206.53,44.79 202.73,47.17 198.92,50.45 194.56,52.33 184.00,58.00 92.00,102.00 88.00,106.00 85.77,109.39 84.11,113.29 80.00,118.00 75.37,120.27 70.56,121.29 65.63,120.87 61.62,119.06 58.09,116.01 55.31,111.92 53.55,107.11 53.47,101.62 55.39,96.20 58.90,91.71 63.26,88.65 67.63,87.68 71.73,87.77 75.85,87.52 81.13,85.19"/>
        <lane id="38014010_2" index="2" disallow="tram rail_urban rail rail_electric rail_fast ship" speed="16.67" length="1830.75" shape="117.13,70.58 123.51,66.16 128.75,59.69 131.37,53.79 131.78,46.56 129.62,39.69 126.68,34.22 122.76,29.37 117.38,25.55 112.04,23.12 107.42,20.04 104.67,17.01 103.18,13.32 103.02,9.53 103.93,7.27 105.61,6.32 108.93,6.86 113.21,9.26 116.64,12.76 119.93,17.41 125.64,20.22 131.35,19.46 135.82,15.67 137.57,11.79 140.20,9.21 144.35,7.54 148.96,7.52 152.51,8.86 192.52,36.44 199.80,38.49 207.47,37.01 213.81,32.65 215.23,26.50 213.66,20.41 206.72,16.76 199.95,17.26 196.37,17.44 193.72,16.73 189.09,14.29 185.06,10.17 182.13,4.28 175.73,-5.63 162.73,-18.86 152.61,-22.82 144.63,-21.25 136.94,-18.46 129.43,-16.01 122.70,-15.66 115.05,-16.78 106.92,-16.38 101.75,-17.05 96.07,-18.23 90.83,-20.51 86.89,-22.91 81.03,-24.35 74.32,-23.89 68.33,-21.37 63.74,-14.80 63.18,-8.35 64.97,-1.28 67.38,4.69 72.60,9.80 76.52,15.10 78.65,21.51 78.69,27.39 77.31,32.19 74.39,36.65 70.17,40.35 64.03,42.62 56.28,42.49 49.90,39.01 46.57,33.88 46.04,28.66 48.47,24.68 55.32,19.97 60.18,15.32 62.66,8.14 62.03,-0.25 58.75,-8.85 52.81,-15.11 46.27,-18.89 37.59,-21.44 23.09,-20.79 3.26,-19.91 -40.67,-23.98 -49.42,-24.66 -60.58,-23.00 -71.75,-17.43 -78.70,-8.48 -80.72,1.54 -80.03,15.80 -74.68,27.87 -62.89,34.92 -51.07,36.20 -38.93,35.36 -29.10,27.82 -26.57,19.71 -23.85,14.37 -20.08,11.66 -14.40,9.86 -7.45,10.69 -2.71,13.53 -0.07,21.16 -0.42,33.93 -3.54,45.02 -15.40,56.47 -51.41,63.64 -81.40,60.48 -108.79,53.12 -115.44,50.19 -120.41,46.17 -122.03,41.91 -121.43,35.71 -113.20,-33.07 -111.59,-37.41 -108.02,-39.63 -101.88,-39.89 -97.58,-38.59 -92.38,-37.04 -87.08,-36.78 -24.50,-50.73 -20.23,-50.57 -16.71,-48.64 -11.92,-44.58 -6.12,-41.87 -1.13,-41.74 4.81,-43.27 8.93,-47.95 10.79,-51.35 12.11,-52.55 13.61,-52.68 16.38,-52.02 18.14,-51.21 20.43,-47.36 23.69,-43.93 27.76,-41.75 33.57,-42.54 38.43,-45.77 41.28,-50.32 44.32,-52.55 47.60,-52.71 50.95,-51.63 55.70,-47.39 63.72,-44.90 71.28,-48.10 76.11,-48.44 82.25,-45.59 89.69,-46.90 95.45,-49.52 99.98,-53.08 103.32,-54.74 108.18,-54.14 114.52,-51.37 120.16,-51.87 125.39,-54.06 131.35,-55.17 189.76,-94.02 191.90,-94.42 194.87,-93.60 198.52,-90.44 204.38,-88.91 209.13,-89.79 213.02,-92.46 215.55,-95.86 217.32,-97.15 220.03,-97.10 223.27,-94.75 250.96,-16.70 251.54,-12.61 250.89,-8.92 248.57,-6.00 243.99,-2.93 239.32,0.26 235.62,5.75 233.41,10.96 230.21,17.01 227.98,23.62 225.12,29.89 222.29,33.62 217.78,36.24 211.02,38.51 204.88,42.05 200.83,44.59 197.20,47.71 193.17,49.45 182.55,55.15 90.12,99.35 85.51,103.97 82.94,107.87 81.36,111.57 78.01,115.41 74.32,117.22 70.36,118.06 66.45,117.73 63.36,116.33 60.50,113.86 58.18,110.45 56.74,106.52 56.68,102.15 58.23,97.76 61.13,94.06 64.58,91.64 67.95,90.89 71.79,90.97 76.62,90.68 82.42,88.12"/>
    </edge>

    <junction id="4370324319" type="priority" x="81.24" y="85.14" incLanes="38014010_0 38014010_1 38014010_2" intLanes=":4370324319_0_0 :4370324319_0_1 :4370324319_0_2" shape="83.51,89.37 79.19,80.80 83.07,89.58">
        <request index="0" response="000" foes="000" cont="0"/>
        <request index="1" response="000" foes="000" cont="0"/>
        <request index="2" response="000" foes="000" cont="0"/>
    </junction>
    <junction id="446557694" type="priority" x="115.03" y="68.14" incLanes="25304430_0 25304430_1 25304430_2" intLanes=":446557694_0_0 :446557694_0_1 :446557694_0_2" shape="118.04,71.89 112.57,64.00 116.89,72.58 117.33,72.35 117.48,72.27 117.63,72.17 117.80,72.06">
        <request index="0" response="000" foes="000" cont="0"/>
        <request index="1" response="000" foes="000" cont="0"/>
        <request index="2" response="000" foes="000" cont="0"/>
    </junction>

    <connection from="25304430" to="38014010" fromLane="0" toLane="0" via=":446557694_0_0" dir="s" state="M"/>
    <connection from="25304430" to="38014010" fromLane="1" toLane="1" via=":446557694_0_1" dir="s" state="M"/>
    <connection from="25304430" to="38014010" fromLane="2" toLane="2" via=":446557694_0_2" dir="s" state="M"/>
    <connection from="38014010" to="25304430" fromLane="0" toLane="0" via=":4370324319_0_0" dir="s" state="M"/>
    <connection from="38014010" to="25304430" fromLane="1" toLane="1" via=":4370324319_0_1" dir="s" state="M"/>
    <connection from="38014010" to="25304430" fromLane="2" toLane="2" via=":4370324319_0_2" dir="s" state="M"/>

    <connection from=":4370324319_0" to="25304430" fromLane="0" toLane="0" dir="s" state="M"/>
    <connection from=":4370324319_0" to="25304430" fromLane="1" toLane="1" dir="s" state="M"/>
    <connection from=":4370324319_0" to="25304430" fromLane="2" toLane="2" dir="s" state="M"/>
    <connection from=":446557694_0" to="38014010" fromLane="0" toLane="0" dir="s" state="M"/>
    <connection from=":446557694_0" to="38014010" fromLane="1" toLane="1" dir="s" state="M"/>
    <connection from=":446557694_0" to="38014010" fromLane="2" toLane="2" dir="s" state="M"/>

</net>
