<?xml version="1.0" encoding="UTF-8"?>

<!-- generated on Thu 21 Nov 2019 16:50:30 GMT by Eclipse SUMO netedit Version 1.3.1
<configuration xmlns:xsi="http://www.w3.org/2001/XMLSchema-instance" xsi:noNamespaceSchemaLocation="http://sumo.dlr.de/xsd/netconvertConfiguration.xsd">

    <input>
        <sumo-net-file value="/home/benedikt/dev/drive/dataset_public/1lane_test/map.net.xml"/>
    </input>

    <output>
        <output-file value="/home/benedikt/dev/drive/dataset_public/1lane_test/map.net.xml"/>
    </output>

    <processing>
        <geometry.max-grade.fix value="false"/>
        <offset.disable-normalization value="true"/>
        <opposites.guess.fix-lengths value="true"/>
        <lefthand value="false"/>
    </processing>

    <junctions>
        <no-turnarounds value="true"/>
        <junctions.corner-detail value="5"/>
        <junctions.limit-turn-speed value="5.5"/>
        <rectangular-lane-cut value="false"/>
    </junctions>

    <pedestrian>
        <walkingareas value="false"/>
    </pedestrian>

</configuration>
-->

<net version="1.3" junctionCornerDetail="5" limitTurnSpeed="5.50" xmlns:xsi="http://www.w3.org/2001/XMLSchema-instance" xsi:noNamespaceSchemaLocation="http://sumo.dlr.de/xsd/net_file.xsd">

    <location netOffset="-630882.85,-4856133.12" convBoundary="-113.86,-156.49,414.37,322.54" origBoundary="-79.371708,43.846679,-79.369237,43.847436" projParameter="+proj=utm +zone=17 +ellps=WGS84 +datum=WGS84 +units=m +no_defs"/>

    <type id="highway.bridleway" priority="1" numLanes="1" speed="2.78" allow="pedestrian" oneway="1" width="2.00"/>
    <type id="highway.bus_guideway" priority="1" numLanes="1" speed="27.78" allow="bus" oneway="1"/>
    <type id="highway.cycleway" priority="1" numLanes="1" speed="8.33" allow="bicycle" oneway="0" width="1.00"/>
    <type id="highway.footway" priority="1" numLanes="1" speed="2.78" allow="pedestrian" oneway="1" width="2.00"/>
    <type id="highway.ford" priority="1" numLanes="1" speed="2.78" allow="army" oneway="0"/>
    <type id="highway.living_street" priority="2" numLanes="1" speed="2.78" disallow="tram rail_urban rail rail_electric ship" oneway="0"/>
    <type id="highway.motorway" priority="14" numLanes="2" speed="39.44" allow="private emergency authority army vip passenger hov taxi bus coach delivery truck trailer motorcycle evehicle custom1 custom2" oneway="1"/>
    <type id="highway.motorway_link" priority="9" numLanes="1" speed="22.22" allow="private emergency authority army vip passenger hov taxi bus coach delivery truck trailer motorcycle evehicle custom1 custom2" oneway="1"/>
    <type id="highway.path" priority="1" numLanes="1" speed="2.78" allow="pedestrian bicycle" oneway="1" width="2.00"/>
    <type id="highway.pedestrian" priority="1" numLanes="1" speed="2.78" allow="pedestrian" oneway="1" width="2.00"/>
    <type id="highway.primary" priority="12" numLanes="2" speed="27.78" disallow="tram rail_urban rail rail_electric ship" oneway="0"/>
    <type id="highway.primary_link" priority="7" numLanes="1" speed="22.22" disallow="tram rail_urban rail rail_electric ship" oneway="0"/>
    <type id="highway.raceway" priority="15" numLanes="2" speed="83.33" allow="vip" oneway="0"/>
    <type id="highway.residential" priority="3" numLanes="1" speed="13.89" disallow="tram rail_urban rail rail_electric ship" oneway="0"/>
    <type id="highway.secondary" priority="11" numLanes="2" speed="27.78" disallow="tram rail_urban rail rail_electric ship" oneway="0"/>
    <type id="highway.secondary_link" priority="6" numLanes="1" speed="22.22" disallow="tram rail_urban rail rail_electric ship" oneway="0"/>
    <type id="highway.service" priority="1" numLanes="1" speed="5.56" allow="pedestrian delivery bicycle" oneway="0"/>
    <type id="highway.stairs" priority="1" numLanes="1" speed="1.39" allow="pedestrian" oneway="1" width="2.00"/>
    <type id="highway.step" priority="1" numLanes="1" speed="1.39" allow="pedestrian" oneway="1" width="2.00"/>
    <type id="highway.steps" priority="1" numLanes="1" speed="1.39" allow="pedestrian" oneway="1" width="2.00"/>
    <type id="highway.tertiary" priority="10" numLanes="1" speed="22.22" disallow="tram rail_urban rail rail_electric ship" oneway="0"/>
    <type id="highway.tertiary_link" priority="5" numLanes="1" speed="22.22" disallow="tram rail_urban rail rail_electric ship" oneway="0"/>
    <type id="highway.track" priority="1" numLanes="1" speed="5.56" disallow="tram rail_urban rail rail_electric ship" oneway="0"/>
    <type id="highway.trunk" priority="13" numLanes="2" speed="27.78" disallow="pedestrian bicycle tram rail_urban rail rail_electric ship" oneway="0"/>
    <type id="highway.trunk_link" priority="8" numLanes="1" speed="22.22" disallow="pedestrian bicycle tram rail_urban rail rail_electric ship" oneway="0"/>
    <type id="highway.unclassified" priority="4" numLanes="1" speed="13.89" disallow="tram rail_urban rail rail_electric ship" oneway="0"/>
    <type id="highway.unsurfaced" priority="1" numLanes="1" speed="8.33" disallow="tram rail_urban rail rail_electric ship" oneway="0"/>
    <type id="railway.light_rail" priority="19" numLanes="1" speed="27.78" allow="rail_urban" oneway="1"/>
    <type id="railway.preserved" priority="16" numLanes="1" speed="27.78" allow="rail" oneway="1"/>
    <type id="railway.rail" priority="20" numLanes="1" speed="83.33" allow="rail rail_electric" oneway="1"/>
    <type id="railway.subway" priority="18" numLanes="1" speed="27.78" allow="rail_urban" oneway="1"/>
    <type id="railway.tram" priority="17" numLanes="1" speed="13.89" allow="tram" oneway="1"/>

    <edge id=":275632284_0" function="internal">
        <lane id=":275632284_0_0" index="0" disallow="tram rail_urban rail rail_electric rail_fast ship" speed="16.67" length="0.50" shape="75.27,62.70 75.13,62.74 75.03,62.77 74.94,62.82 74.82,62.89"/>
    </edge>
    <edge id=":4370324319_0" function="internal">
        <lane id=":4370324319_0_0" index="0" disallow="tram rail_urban rail rail_electric rail_fast ship" speed="16.67" length="0.23" shape="27.35,69.96 27.13,69.91"/>
    </edge>

    <edge id="25304430" from="4370324319" to="275632284" priority="11" type="highway.secondary" spreadType="center" shape="27.24,69.93 17.10,67.77 8.77,69.56 4.39,75.90 2.55,82.81 -1.56,87.44 -9.32,87.98 -15.22,85.83 -19.54,80.51 -18.47,74.23 -15.94,70.29 -10.95,66.69 -4.63,64.31 2.65,65.12 7.46,62.74 8.94,57.86 6.64,52.67 2.45,45.33 0.22,39.25 -1.03,30.58 0.00,21.78 1.93,16.34 5.40,10.75 8.28,6.98 12.47,3.97 17.26,1.75 22.71,0.34 29.36,0.00 35.07,0.86 40.00,2.00 46.00,4.00 52.00,6.00 57.34,8.00 63.34,10.27 70.28,12.94 77.34,15.07 86.13,17.07 94.00,18.67 101.01,19.39 107.92,20.21 114.81,20.81 121.82,20.86 129.80,19.29 135.52,17.55 146.37,13.38 156.49,9.36 163.00,7.22 169.63,5.60 176.57,5.20 184.51,6.15 190.71,8.32 196.23,9.82 202.03,9.19 207.88,7.19 214.49,7.69 218.71,12.00 223.45,16.33 230.02,18.44 237.45,18.31 244.89,18.18 252.92,16.89 260.92,15.34 268.16,16.04 274.08,18.39 281.31,20.13 290.88,20.22 298.74,18.51 308.24,17.26 317.57,17.70 328.30,17.61 336.83,16.96 349.98,17.72 356.85,17.42 363.71,17.50 369.83,17.59 377.26,17.65 387.36,16.53 396.29,16.95 401.59,17.26 406.60,18.53 411.59,20.43 413.91,24.32 414.37,29.09 413.09,32.88 409.43,36.42 406.89,38.91 401.77,41.44 397.44,42.25 390.58,43.51 384.04,44.81 379.23,45.80 375.15,46.64 369.14,48.23 363.47,51.65 358.94,55.48 356.64,60.16 357.00,66.11 358.41,72.00 358.26,76.65 355.46,83.36 352.64,87.17 349.79,91.02 346.58,95.35 344.22,98.53 340.87,103.06 338.06,108.02 337.40,114.62 339.35,121.47 341.85,128.35 342.67,135.10 340.42,140.25 336.09,143.67 329.86,144.46 324.12,143.92 318.35,144.31 313.45,146.31 308.45,150.66 304.53,154.13 301.63,158.12 298.02,163.08 294.17,168.38 290.82,172.99 287.72,177.25 282.04,182.83 277.37,187.87 272.49,191.77 268.36,194.23 262.83,197.53 257.51,200.87 251.96,205.83 249.51,210.19 248.08,215.60 246.61,221.16 245.31,226.05 243.37,233.40 241.83,239.22 240.42,244.55 239.51,248.00 238.74,250.93 234.97,256.28 232.33,260.02 228.52,265.43 226.97,267.63 223.89,272.00 221.22,275.79 218.73,279.32 216.15,281.76 213.67,284.10 209.62,287.93 206.09,291.27 203.09,294.11 199.71,297.31 196.92,299.95 192.61,304.03 188.95,308.27 186.53,313.59 182.84,317.30 179.98,319.39 175.37,321.66 170.79,322.54 165.33,321.59 161.93,319.73 157.87,316.17 152.19,312.04 148.04,309.02 143.36,302.70 140.11,295.96 137.56,290.36 137.82,283.39 139.46,276.75 142.92,270.88 145.66,265.85 147.15,261.01 147.44,255.80 145.98,249.73 142.38,244.54 135.77,240.75 130.14,238.64 125.79,234.18 123.01,228.50 122.00,222.23 124.18,216.57 127.05,208.99 127.22,201.96 126.41,196.44 124.14,191.54 120.53,185.77 116.44,181.99 111.90,179.63 106.19,178.65 102.14,178.19 97.62,178.82 92.57,181.46 89.45,185.72 87.05,190.99 83.32,195.69 79.51,198.99 73.44,201.74 66.05,203.12 59.86,203.54 52.43,202.81 45.78,200.18 40.59,196.27 36.55,190.47 33.59,185.02 31.68,178.57 29.88,172.75 28.26,165.97 26.58,160.27 24.52,153.55 22.41,147.37 19.98,142.37 16.54,137.15 13.07,132.89 9.95,130.26 5.68,127.91 0.28,127.17 -4.75,127.56 -8.72,127.86 -15.18,128.06 -20.28,127.51 -25.79,125.87 -31.24,122.71 -33.85,119.36 -35.88,116.77 -37.56,113.36 -39.55,109.29 -42.48,103.31 -44.67,98.84 -46.93,94.22 -48.93,90.15 -51.52,84.86 -53.78,80.25 -55.91,76.28 -59.15,72.67 -62.42,69.13 -66.39,65.55 -70.61,64.10 -77.25,62.85 -83.93,64.76 -89.09,68.44 -90.94,74.36 -90.24,82.90 -89.56,88.14 -89.08,92.11 -88.55,96.46 -87.96,101.35 -87.27,107.09 -86.65,112.24 -86.10,116.74 -85.47,121.93 -83.54,125.66 -81.12,128.59 -77.49,130.87 -74.01,133.07 -69.13,135.25 -63.46,137.77 -57.78,140.30 -52.39,142.70 -45.87,145.60 -40.02,148.21 -33.73,150.60 -26.02,153.67 -22.70,154.87 -17.89,156.60 -13.29,157.21 -8.85,157.79 -0.78,158.37 6.03,161.04 10.80,164.56 14.68,168.44 16.40,173.07 15.38,178.25 12.38,182.83 8.18,184.89 1.93,187.22 -2.08,188.71 -7.35,190.67 -12.42,192.56 -19.72,193.61 -25.34,192.62 -31.31,189.77 -36.14,187.46 -42.32,184.51 -48.41,181.60 -54.66,178.61 -59.74,176.18 -65.24,173.56 -68.67,171.92 -74.34,169.21 -80.17,166.42 -85.26,163.99 -89.86,161.79 -96.11,158.80 -101.28,156.33 -107.47,152.38 -111.11,146.19 -113.54,140.24 -113.51,135.69 -113.49,132.36 -113.45,126.31 -113.41,120.57 -113.37,114.21 -113.33,108.02 -113.28,103.34 -113.21,95.64 -113.15,89.84 -113.09,83.52 -113.03,76.81 -113.01,69.68 -113.70,61.92 -113.86,55.12 -113.08,46.97 -111.26,39.84 -108.25,33.42 -104.72,27.77 -101.31,22.13 -97.05,16.51 -92.89,11.71 -87.23,7.08 -81.18,2.23 -75.01,-1.86 -68.48,-6.37 -63.11,-9.69 -57.96,-12.87 -52.65,-16.15 -47.25,-19.48 -41.04,-23.32 -35.97,-26.45 -31.76,-29.05 -25.76,-32.76 -20.00,-36.32 -15.57,-39.06 -12.63,-42.79 -8.86,-47.57 -5.35,-52.02 -0.87,-57.70 3.78,-63.60 7.75,-68.64 10.30,-72.86 13.07,-77.45 17.06,-84.04 21.01,-90.58 24.58,-96.50 28.62,-103.20 32.33,-109.33 36.43,-114.98 39.65,-119.92 43.20,-126.20 42.89,-133.29 41.46,-141.82 43.24,-148.53 49.31,-154.31 56.91,-155.77 64.89,-156.49 72.66,-153.37 77.56,-148.85 80.07,-140.66 76.21,-134.78 70.55,-131.26 62.31,-130.85 55.81,-128.64 50.95,-121.03 46.47,-113.57 43.94,-109.25 41.45,-105.00 38.93,-100.70 36.02,-95.74 33.33,-91.14 30.55,-86.04 28.36,-81.49 26.66,-77.95 25.59,-73.88 24.24,-68.74 22.44,-61.14 21.46,-54.05 19.62,-44.64 16.02,-36.41 11.71,-28.40 5.74,-23.19 -2.79,-19.57 -11.25,-17.89 -18.56,-14.86 -26.08,-8.64 -32.31,-2.35 -38.38,4.07 -42.97,10.53 -47.32,17.09 -51.89,23.92 -56.19,31.51 -58.23,39.84 -58.87,47.17 -57.89,54.33 -55.10,61.32 -52.11,67.33 -47.35,73.14 -40.65,81.28 -34.00,89.48 -27.63,96.47 -21.81,102.00 -14.33,107.13 -5.72,109.59 3.02,110.88 11.80,110.46 16.78,109.40 22.07,108.27 28.64,104.44 33.92,99.87 39.51,96.27 47.47,94.26 55.19,94.63 61.67,96.13 68.40,100.07 74.26,106.37 78.46,110.47 81.93,113.87 86.34,119.11 90.32,123.83 93.40,127.81 96.71,132.10 100.22,137.52 103.53,142.65 109.90,151.38 117.39,163.28 123.09,171.35 132.35,177.16 143.72,179.86 153.18,178.20 162.98,172.57 169.73,161.82 173.34,154.77 177.30,143.74 181.78,132.38 184.15,126.85 187.01,120.18 190.63,106.04 191.81,98.25 195.47,89.90 204.15,81.89 215.28,79.23 229.08,80.89 238.02,84.37 244.28,90.10 246.23,97.90 253.11,104.35 263.43,107.99 276.22,105.53 283.60,99.63 287.42,91.09 285.42,83.18 278.22,77.49 270.28,74.48 262.77,67.67 260.71,59.45 261.43,50.63 262.43,46.70 264.72,41.94 268.00,39.78 274.06,38.38 285.35,38.75 295.51,41.31 305.38,44.94 310.03,52.43 312.61,60.78 312.44,69.63 310.89,78.02 308.32,86.58 304.25,94.41 298.87,100.89 291.82,105.53 286.44,109.07 280.12,113.23 272.12,116.98 265.29,119.43 260.20,120.09 254.92,119.51 246.86,118.40 238.41,117.86 231.88,118.61 227.40,120.17 219.70,123.87 217.11,126.70 215.74,129.38 215.88,133.08 216.78,135.98 219.20,139.08 223.16,140.86 227.50,142.24 232.22,142.87 236.86,142.90 243.05,141.42 248.76,140.05 255.00,138.56 260.65,137.21 268.12,135.42 274.05,133.96 280.58,132.36 286.61,130.88 294.40,128.96 301.21,127.10 309.95,124.70 313.75,123.27 318.82,121.35 322.09,119.60 324.79,115.57 326.02,111.12 326.11,105.97 326.08,101.11 326.07,96.38 326.02,90.87 325.98,84.86 325.95,79.01 325.92,74.11 325.89,68.27 325.85,61.36 325.80,52.03 325.85,43.57 325.56,36.17 322.20,29.86 315.86,27.58 308.80,27.56 300.30,27.53 292.80,27.50 285.55,27.48 273.55,27.44 261.54,27.08 251.29,26.99 240.04,26.89 231.79,26.82 222.03,26.73 213.34,26.95 207.72,29.84 202.60,33.88 196.41,39.54 193.05,44.42 191.05,49.66 191.46,55.71 194.14,61.40 194.31,67.54 189.41,70.67 184.23,71.84 178.39,72.68 175.65,75.15 172.80,80.95 169.86,85.51 162.04,85.72 154.10,83.62 147.08,80.25 141.13,76.11 135.42,71.22 128.28,66.56 122.72,61.78 121.74,56.72 122.19,49.66 119.62,42.19 113.01,40.03 107.17,38.88 101.23,43.30 97.77,50.73 91.26,56.56 83.60,60.68 75.03,62.76">
        <lane id="25304430_0" index="0" disallow="tram rail_urban rail rail_electric rail_fast ship" speed="16.67" length="3750.70" shape="27.13,69.91 17.10,67.77 8.77,69.56 4.39,75.90 2.55,82.81 -1.56,87.44 -9.32,87.98 -15.22,85.83 -19.54,80.51 -18.47,74.23 -15.94,70.29 -10.95,66.69 -4.63,64.31 2.65,65.12 7.46,62.74 8.94,57.86 6.64,52.67 2.45,45.33 0.22,39.25 -1.03,30.58 0.00,21.78 1.93,16.34 5.40,10.75 8.28,6.98 12.47,3.97 17.26,1.75 22.71,0.34 29.36,0.00 35.07,0.86 40.00,2.00 46.00,4.00 52.00,6.00 57.34,8.00 63.34,10.27 70.28,12.94 77.34,15.07 86.13,17.07 94.00,18.67 101.01,19.39 107.92,20.21 114.81,20.81 121.82,20.86 129.80,19.29 135.52,17.55 146.37,13.38 156.49,9.36 163.00,7.22 169.63,5.60 176.57,5.20 184.51,6.15 190.71,8.32 196.23,9.82 202.03,9.19 207.88,7.19 214.49,7.69 218.71,12.00 223.45,16.33 230.02,18.44 237.45,18.31 244.89,18.18 252.92,16.89 260.92,15.34 268.16,16.04 274.08,18.39 281.31,20.13 290.88,20.22 298.74,18.51 308.24,17.26 317.57,17.70 328.30,17.61 336.83,16.96 349.98,17.72 356.85,17.42 363.71,17.50 369.83,17.59 377.26,17.65 387.36,16.53 396.29,16.95 401.59,17.26 406.60,18.53 411.59,20.43 413.91,24.32 414.37,29.09 413.09,32.88 409.43,36.42 406.89,38.91 401.77,41.44 397.44,42.25 390.58,43.51 384.04,44.81 379.23,45.80 375.15,46.64 369.14,48.23 363.47,51.65 358.94,55.48 356.64,60.16 357.00,66.11 358.41,72.00 358.26,76.65 355.46,83.36 352.64,87.17 349.79,91.02 346.58,95.35 344.22,98.53 340.87,103.06 338.06,108.02 337.40,114.62 339.35,121.47 341.85,128.35 342.67,135.10 340.42,140.25 336.09,143.67 329.86,144.46 324.12,143.92 318.35,144.31 313.45,146.31 308.45,150.66 304.53,154.13 301.63,158.12 298.02,163.08 294.17,168.38 290.82,172.99 287.72,177.25 282.04,182.83 277.37,187.87 272.49,191.77 268.36,194.23 262.83,197.53 257.51,200.87 251.96,205.83 249.51,210.19 248.08,215.60 246.61,221.16 245.31,226.05 243.37,233.40 241.83,239.22 240.42,244.55 239.51,248.00 238.74,250.93 234.97,256.28 232.33,260.02 228.52,265.43 226.97,267.63 223.89,272.00 221.22,275.79 218.73,279.32 216.15,281.76 213.67,284.10 209.62,287.93 206.09,291.27 203.09,294.11 199.71,297.31 196.92,299.95 192.61,304.03 188.95,308.27 186.53,313.59 182.84,317.30 179.98,319.39 175.37,321.66 170.79,322.54 165.33,321.59 161.93,319.73 157.87,316.17 152.19,312.04 148.04,309.02 143.36,302.70 140.11,295.96 137.56,290.36 137.82,283.39 139.46,276.75 142.92,270.88 145.66,265.85 147.15,261.01 147.44,255.80 145.98,249.73 142.38,244.54 135.77,240.75 130.14,238.64 125.79,234.18 123.01,228.50 122.00,222.23 124.18,216.57 127.05,208.99 127.22,201.96 126.41,196.44 124.14,191.54 120.53,185.77 116.44,181.99 111.90,179.63 106.19,178.65 102.14,178.19 97.62,178.82 92.57,181.46 89.45,185.72 87.05,190.99 83.32,195.69 79.51,198.99 73.44,201.74 66.05,203.12 59.86,203.54 52.43,202.81 45.78,200.18 40.59,196.27 36.55,190.47 33.59,185.02 31.68,178.57 29.88,172.75 28.26,165.97 26.58,160.27 24.52,153.55 22.41,147.37 19.98,142.37 16.54,137.15 13.07,132.89 9.95,130.26 5.68,127.91 0.28,127.17 -4.75,127.56 -8.72,127.86 -15.18,128.06 -20.28,127.51 -25.79,125.87 -31.24,122.71 -33.85,119.36 -35.88,116.77 -37.56,113.36 -39.55,109.29 -42.48,103.31 -44.67,98.84 -46.93,94.22 -48.93,90.15 -51.52,84.86 -53.78,80.25 -55.91,76.28 -59.15,72.67 -62.42,69.13 -66.39,65.55 -70.61,64.10 -77.25,62.85 -83.93,64.76 -89.09,68.44 -90.94,74.36 -90.24,82.90 -89.56,88.14 -89.08,92.11 -88.55,96.46 -87.96,101.35 -87.27,107.09 -86.65,112.24 -86.10,116.74 -85.47,121.93 -83.54,125.66 -81.12,128.59 -77.49,130.87 -74.01,133.07 -69.13,135.25 -63.46,137.77 -57.78,140.30 -52.39,142.70 -45.87,145.60 -40.02,148.21 -33.73,150.60 -26.02,153.67 -22.70,154.87 -17.89,156.60 -13.29,157.21 -8.85,157.79 -0.78,158.37 6.03,161.04 10.80,164.56 14.68,168.44 16.40,173.07 15.38,178.25 12.38,182.83 8.18,184.89 1.93,187.22 -2.08,188.71 -7.35,190.67 -12.42,192.56 -19.72,193.61 -25.34,192.62 -31.31,189.77 -36.14,187.46 -42.32,184.51 -48.41,181.60 -54.66,178.61 -59.74,176.18 -65.24,173.56 -68.67,171.92 -74.34,169.21 -80.17,166.42 -85.26,163.99 -89.86,161.79 -96.11,158.80 -101.28,156.33 -107.47,152.38 -111.11,146.19 -113.54,140.24 -113.51,135.69 -113.49,132.36 -113.45,126.31 -113.41,120.57 -113.37,114.21 -113.33,108.02 -113.28,103.34 -113.21,95.64 -113.15,89.84 -113.09,83.52 -113.03,76.81 -113.01,69.68 -113.70,61.92 -113.86,55.12 -113.08,46.97 -111.26,39.84 -108.25,33.42 -104.72,27.77 -101.31,22.13 -97.05,16.51 -92.89,11.71 -87.23,7.08 -81.18,2.23 -75.01,-1.86 -68.48,-6.37 -63.11,-9.69 -57.96,-12.87 -52.65,-16.15 -47.25,-19.48 -41.04,-23.32 -35.97,-26.45 -31.76,-29.05 -25.76,-32.76 -20.00,-36.32 -15.57,-39.06 -12.63,-42.79 -8.86,-47.57 -5.35,-52.02 -0.87,-57.70 3.78,-63.60 7.75,-68.64 10.30,-72.86 13.07,-77.45 17.06,-84.04 21.01,-90.58 24.58,-96.50 28.62,-103.20 32.33,-109.33 36.43,-114.98 39.65,-119.92 43.20,-126.20 42.89,-133.29 41.46,-141.82 43.24,-148.53 49.31,-154.31 56.91,-155.77 64.89,-156.49 72.66,-153.37 77.56,-148.85 80.07,-140.66 76.21,-134.78 70.55,-131.26 62.31,-130.85 55.81,-128.64 50.95,-121.03 46.47,-113.57 43.94,-109.25 41.45,-105.00 38.93,-100.70 36.02,-95.74 33.33,-91.14 30.55,-86.04 28.36,-81.49 26.66,-77.95 25.59,-73.88 24.24,-68.74 22.44,-61.14 21.46,-54.05 19.62,-44.64 16.02,-36.41 11.71,-28.40 5.74,-23.19 -2.79,-19.57 -11.25,-17.89 -18.56,-14.86 -26.08,-8.64 -32.31,-2.35 -38.38,4.07 -42.97,10.53 -47.32,17.09 -51.89,23.92 -56.19,31.51 -58.23,39.84 -58.87,47.17 -57.89,54.33 -55.10,61.32 -52.11,67.33 -47.35,73.14 -40.65,81.28 -34.00,89.48 -27.63,96.47 -21.81,102.00 -14.33,107.13 -5.72,109.59 3.02,110.88 11.80,110.46 16.78,109.40 22.07,108.27 28.64,104.44 33.92,99.87 39.51,96.27 47.47,94.26 55.19,94.63 61.67,96.13 68.40,100.07 74.26,106.37 78.46,110.47 81.93,113.87 86.34,119.11 90.32,123.83 93.40,127.81 96.71,132.10 100.22,137.52 103.53,142.65 109.90,151.38 117.39,163.28 123.09,171.35 132.35,177.16 143.72,179.86 153.18,178.20 162.98,172.57 169.73,161.82 173.34,154.77 177.30,143.74 181.78,132.38 184.15,126.85 187.01,120.18 190.63,106.04 191.81,98.25 195.47,89.90 204.15,81.89 215.28,79.23 229.08,80.89 238.02,84.37 244.28,90.10 246.23,97.90 253.11,104.35 263.43,107.99 276.22,105.53 283.60,99.63 287.42,91.09 285.42,83.18 278.22,77.49 270.28,74.48 262.77,67.67 260.71,59.45 261.43,50.63 262.43,46.70 264.72,41.94 268.00,39.78 274.06,38.38 285.35,38.75 295.51,41.31 305.38,44.94 310.03,52.43 312.61,60.78 312.44,69.63 310.89,78.02 308.32,86.58 304.25,94.41 298.87,100.89 291.82,105.53 286.44,109.07 280.12,113.23 272.12,116.98 265.29,119.43 260.20,120.09 254.92,119.51 246.86,118.40 238.41,117.86 231.88,118.61 227.40,120.17 219.70,123.87 217.11,126.70 215.74,129.38 215.88,133.08 216.78,135.98 219.20,139.08 223.16,140.86 227.50,142.24 232.22,142.87 236.86,142.90 243.05,141.42 248.76,140.05 255.00,138.56 260.65,137.21 268.12,135.42 274.05,133.96 280.58,132.36 286.61,130.88 294.40,128.96 301.21,127.10 309.95,124.70 313.75,123.27 318.82,121.35 322.09,119.60 324.79,115.57 326.02,111.12 326.11,105.97 326.08,101.11 326.07,96.38 326.02,90.87 325.98,84.86 325.95,79.01 325.92,74.11 325.89,68.27 325.85,61.36 325.80,52.03 325.85,43.57 325.56,36.17 322.20,29.86 315.86,27.58 308.80,27.56 300.30,27.53 292.80,27.50 285.55,27.48 273.55,27.44 261.54,27.08 251.29,26.99 240.04,26.89 231.79,26.82 222.03,26.73 213.34,26.95 207.72,29.84 202.60,33.88 196.41,39.54 193.05,44.42 191.05,49.66 191.46,55.71 194.14,61.40 194.31,67.54 189.41,70.67 184.23,71.84 178.39,72.68 175.65,75.15 172.80,80.95 169.86,85.51 162.04,85.72 154.10,83.62 147.08,80.25 141.13,76.11 135.42,71.22 128.28,66.56 122.72,61.78 121.74,56.72 122.19,49.66 119.62,42.19 113.01,40.03 107.17,38.88 101.23,43.30 97.77,50.73 91.26,56.56 83.60,60.68 75.27,62.70"/>
    </edge>
    <edge id="25304432" from="275632284" to="4370324319" priority="11" type="highway.secondary" spreadType="center" shape="75.03,62.76 68.59,66.71 65.44,71.06 64.09,75.32 62.06,78.69 57.70,82.04 51.36,82.05 45.26,79.98 41.08,76.58 35.24,71.95 27.24,69.93">
        <lane id="25304432_0" index="0" disallow="tram rail_urban rail rail_electric rail_fast ship" speed="16.67" length="60.33" shape="74.82,62.89 68.59,66.71 65.44,71.06 64.09,75.32 62.06,78.69 57.70,82.04 51.36,82.05 45.26,79.98 41.08,76.58 35.24,71.95 27.35,69.96"/>
    </edge>

    <junction id="275632284" type="priority" x="75.03" y="62.76" incLanes="25304430_0" intLanes=":275632284_0_0" shape="75.65,64.26 74.90,61.15 74.54,61.24 74.42,61.28 74.30,61.34 74.16,61.42 73.98,61.53">
        <request index="0" response="0" foes="0" cont="0"/>
    </junction>
    <junction id="4370324319" type="priority" x="27.24" y="69.93" incLanes="25304432_0" intLanes=":4370324319_0_0" shape="26.96,71.51 27.74,68.41 27.46,68.34 26.79,71.47">
        <request index="0" response="0" foes="0" cont="0"/>
    </junction>

    <connection from="25304430" to="25304432" fromLane="0" toLane="0" via=":275632284_0_0" dir="s" state="M"/>
    <connection from="25304432" to="25304430" fromLane="0" toLane="0" via=":4370324319_0_0" dir="s" state="M"/>

    <connection from=":275632284_0" to="25304432" fromLane="0" toLane="0" dir="s" state="M"/>
    <connection from=":4370324319_0" to="25304430" fromLane="0" toLane="0" dir="s" state="M"/>

</net>
