<?xml version="1.0" encoding="UTF-8"?>

<!-- generated on Tue 03 Dec 2019 15:25:42 GMT by Eclipse SUMO netedit Version 1.3.1
<configuration xmlns:xsi="http://www.w3.org/2001/XMLSchema-instance" xsi:noNamespaceSchemaLocation="http://sumo.dlr.de/xsd/netconvertConfiguration.xsd">

    <input>
        <sumo-net-file value="/home/benedikt/dev/DriveML/tracks/2lane_new_a_bwd/map.net.xml"/>
    </input>

    <output>
        <output-file value="/home/benedikt/dev/DriveML/tracks/2lane_new_a_bwd/map.net.xml"/>
    </output>

    <processing>
        <geometry.max-grade.fix value="false"/>
        <offset.disable-normalization value="true"/>
        <opposites.guess.fix-lengths value="true"/>
        <lefthand value="false"/>
    </processing>

    <junctions>
        <no-turnarounds value="true"/>
        <junctions.corner-detail value="5"/>
        <junctions.limit-turn-speed value="5.5"/>
        <rectangular-lane-cut value="false"/>
    </junctions>

    <pedestrian>
        <walkingareas value="false"/>
    </pedestrian>

</configuration>
-->

<net version="1.3" junctionCornerDetail="5" limitTurnSpeed="5.50" xmlns:xsi="http://www.w3.org/2001/XMLSchema-instance" xsi:noNamespaceSchemaLocation="http://sumo.dlr.de/xsd/net_file.xsd">

    <location netOffset="-630882.85,-4856133.12" convBoundary="-113.86,-156.49,414.37,322.54" origBoundary="-79.371708,43.846679,-79.369237,43.847436" projParameter="+proj=utm +zone=17 +ellps=WGS84 +datum=WGS84 +units=m +no_defs"/>

    <type id="highway.bridleway" priority="1" numLanes="1" speed="2.78" allow="pedestrian" oneway="1" width="2.00"/>
    <type id="highway.bus_guideway" priority="1" numLanes="1" speed="27.78" allow="bus" oneway="1"/>
    <type id="highway.cycleway" priority="1" numLanes="1" speed="8.33" allow="bicycle" oneway="0" width="1.00"/>
    <type id="highway.footway" priority="1" numLanes="1" speed="2.78" allow="pedestrian" oneway="1" width="2.00"/>
    <type id="highway.ford" priority="1" numLanes="1" speed="2.78" allow="army" oneway="0"/>
    <type id="highway.living_street" priority="2" numLanes="1" speed="2.78" disallow="tram rail_urban rail rail_electric ship" oneway="0"/>
    <type id="highway.motorway" priority="14" numLanes="2" speed="39.44" allow="private emergency authority army vip passenger hov taxi bus coach delivery truck trailer motorcycle evehicle custom1 custom2" oneway="1"/>
    <type id="highway.motorway_link" priority="9" numLanes="1" speed="22.22" allow="private emergency authority army vip passenger hov taxi bus coach delivery truck trailer motorcycle evehicle custom1 custom2" oneway="1"/>
    <type id="highway.path" priority="1" numLanes="1" speed="2.78" allow="pedestrian bicycle" oneway="1" width="2.00"/>
    <type id="highway.pedestrian" priority="1" numLanes="1" speed="2.78" allow="pedestrian" oneway="1" width="2.00"/>
    <type id="highway.primary" priority="12" numLanes="2" speed="27.78" disallow="tram rail_urban rail rail_electric ship" oneway="0"/>
    <type id="highway.primary_link" priority="7" numLanes="1" speed="22.22" disallow="tram rail_urban rail rail_electric ship" oneway="0"/>
    <type id="highway.raceway" priority="15" numLanes="2" speed="83.33" allow="vip" oneway="0"/>
    <type id="highway.residential" priority="3" numLanes="1" speed="13.89" disallow="tram rail_urban rail rail_electric ship" oneway="0"/>
    <type id="highway.secondary" priority="11" numLanes="2" speed="27.78" disallow="tram rail_urban rail rail_electric ship" oneway="0"/>
    <type id="highway.secondary_link" priority="6" numLanes="1" speed="22.22" disallow="tram rail_urban rail rail_electric ship" oneway="0"/>
    <type id="highway.service" priority="1" numLanes="1" speed="5.56" allow="pedestrian delivery bicycle" oneway="0"/>
    <type id="highway.stairs" priority="1" numLanes="1" speed="1.39" allow="pedestrian" oneway="1" width="2.00"/>
    <type id="highway.step" priority="1" numLanes="1" speed="1.39" allow="pedestrian" oneway="1" width="2.00"/>
    <type id="highway.steps" priority="1" numLanes="1" speed="1.39" allow="pedestrian" oneway="1" width="2.00"/>
    <type id="highway.tertiary" priority="10" numLanes="1" speed="22.22" disallow="tram rail_urban rail rail_electric ship" oneway="0"/>
    <type id="highway.tertiary_link" priority="5" numLanes="1" speed="22.22" disallow="tram rail_urban rail rail_electric ship" oneway="0"/>
    <type id="highway.track" priority="1" numLanes="1" speed="5.56" disallow="tram rail_urban rail rail_electric ship" oneway="0"/>
    <type id="highway.trunk" priority="13" numLanes="2" speed="27.78" disallow="pedestrian bicycle tram rail_urban rail rail_electric ship" oneway="0"/>
    <type id="highway.trunk_link" priority="8" numLanes="1" speed="22.22" disallow="pedestrian bicycle tram rail_urban rail rail_electric ship" oneway="0"/>
    <type id="highway.unclassified" priority="4" numLanes="1" speed="13.89" disallow="tram rail_urban rail rail_electric ship" oneway="0"/>
    <type id="highway.unsurfaced" priority="1" numLanes="1" speed="8.33" disallow="tram rail_urban rail rail_electric ship" oneway="0"/>
    <type id="railway.light_rail" priority="19" numLanes="1" speed="27.78" allow="rail_urban" oneway="1"/>
    <type id="railway.preserved" priority="16" numLanes="1" speed="27.78" allow="rail" oneway="1"/>
    <type id="railway.rail" priority="20" numLanes="1" speed="83.33" allow="rail rail_electric" oneway="1"/>
    <type id="railway.subway" priority="18" numLanes="1" speed="27.78" allow="rail_urban" oneway="1"/>
    <type id="railway.tram" priority="17" numLanes="1" speed="13.89" allow="tram" oneway="1"/>

    <edge id=":275632284_0" function="internal">
        <lane id=":275632284_0_0" index="0" disallow="tram rail_urban rail rail_electric rail_fast ship" speed="12.99" length="1.00" shape="73.76,61.66 74.15,61.43 74.42,61.29 74.71,61.20 75.14,61.09"/>
        <lane id=":275632284_0_1" index="1" disallow="tram rail_urban rail rail_electric rail_fast ship" speed="16.67" length="1.00" shape="75.44,64.39 75.56,64.31 75.66,64.26 75.75,64.23 75.90,64.20"/>
    </edge>
    <edge id=":4370324319_0" function="internal">
        <lane id=":4370324319_0_0" index="0" disallow="tram rail_urban rail rail_electric rail_fast ship" speed="16.67" length="0.23" shape="27.46,68.34 27.74,68.41"/>
        <lane id=":4370324319_0_1" index="1" disallow="tram rail_urban rail rail_electric rail_fast ship" speed="16.67" length="0.23" shape="26.79,71.47 26.96,71.51"/>
    </edge>

    <edge id="25304430" from="275632284" to="4370324319" priority="11" type="highway.secondary" spreadType="center" shape="75.03,62.76 83.60,60.68 91.26,56.56 97.77,50.73 101.23,43.30 107.17,38.88 113.01,40.03 119.62,42.19 122.19,49.66 121.74,56.72 122.72,61.78 128.28,66.56 135.42,71.22 141.13,76.11 147.08,80.25 154.10,83.62 162.04,85.72 169.86,85.51 172.80,80.95 175.65,75.15 178.39,72.68 184.23,71.84 189.41,70.67 194.31,67.54 194.14,61.40 191.46,55.71 191.05,49.66 193.05,44.42 196.41,39.54 202.60,33.88 207.72,29.84 213.34,26.95 222.03,26.73 231.79,26.82 240.04,26.89 251.29,26.99 261.54,27.08 273.55,27.44 285.55,27.48 292.80,27.50 300.30,27.53 308.80,27.56 315.86,27.58 322.20,29.86 325.56,36.17 325.85,43.57 325.80,52.03 325.85,61.36 325.89,68.27 325.92,74.11 325.95,79.01 325.98,84.86 326.02,90.87 326.07,96.38 326.08,101.11 326.11,105.97 326.02,111.12 324.79,115.57 322.09,119.60 318.82,121.35 313.75,123.27 309.95,124.70 301.21,127.10 294.40,128.96 286.61,130.88 280.58,132.36 274.05,133.96 268.12,135.42 260.65,137.21 255.00,138.56 248.76,140.05 243.05,141.42 236.86,142.90 232.22,142.87 227.50,142.24 223.16,140.86 219.20,139.08 216.78,135.98 215.88,133.08 215.74,129.38 217.11,126.70 219.70,123.87 227.40,120.17 231.88,118.61 238.41,117.86 246.86,118.40 254.92,119.51 260.20,120.09 265.29,119.43 272.12,116.98 280.12,113.23 286.44,109.07 291.82,105.53 298.87,100.89 304.25,94.41 308.32,86.58 310.89,78.02 312.44,69.63 312.61,60.78 310.03,52.43 305.38,44.94 295.51,41.31 285.35,38.75 274.06,38.38 268.00,39.78 264.72,41.94 262.43,46.70 261.43,50.63 260.71,59.45 262.77,67.67 270.28,74.48 278.22,77.49 285.42,83.18 287.42,91.09 283.60,99.63 276.22,105.53 263.43,107.99 253.11,104.35 246.23,97.90 244.28,90.10 238.02,84.37 229.08,80.89 215.28,79.23 204.15,81.89 195.47,89.90 191.81,98.25 190.63,106.04 187.01,120.18 184.15,126.85 181.78,132.38 177.30,143.74 173.34,154.77 169.73,161.82 162.98,172.57 153.18,178.20 143.72,179.86 132.35,177.16 123.09,171.35 117.39,163.28 109.90,151.38 103.53,142.65 100.22,137.52 96.71,132.10 93.40,127.81 90.32,123.83 86.34,119.11 81.93,113.87 78.46,110.47 74.26,106.37 68.40,100.07 61.67,96.13 55.19,94.63 47.47,94.26 39.51,96.27 33.92,99.87 28.64,104.44 22.07,108.27 16.78,109.40 11.80,110.46 3.02,110.88 -5.72,109.59 -14.33,107.13 -21.81,102.00 -27.63,96.47 -34.00,89.48 -40.65,81.28 -47.35,73.14 -52.11,67.33 -55.10,61.32 -57.89,54.33 -58.87,47.17 -58.23,39.84 -56.19,31.51 -51.89,23.92 -47.32,17.09 -42.97,10.53 -38.38,4.07 -32.31,-2.35 -26.08,-8.64 -18.56,-14.86 -11.25,-17.89 -2.79,-19.57 5.74,-23.19 11.71,-28.40 16.02,-36.41 19.62,-44.64 21.46,-54.05 22.44,-61.14 24.24,-68.74 25.59,-73.88 26.66,-77.95 28.36,-81.49 30.55,-86.04 33.33,-91.14 36.02,-95.74 38.93,-100.70 41.45,-105.00 43.94,-109.25 46.47,-113.57 50.95,-121.03 55.81,-128.64 62.31,-130.85 70.55,-131.26 76.21,-134.78 80.07,-140.66 77.56,-148.85 72.66,-153.37 64.89,-156.49 56.91,-155.77 49.31,-154.31 43.24,-148.53 41.46,-141.82 42.89,-133.29 43.20,-126.20 39.65,-119.92 36.43,-114.98 32.33,-109.33 28.62,-103.20 24.58,-96.50 21.01,-90.58 17.06,-84.04 13.07,-77.45 10.30,-72.86 7.75,-68.64 3.78,-63.60 -0.87,-57.70 -5.35,-52.02 -8.86,-47.57 -12.63,-42.79 -15.57,-39.06 -20.00,-36.32 -25.76,-32.76 -31.76,-29.05 -35.97,-26.45 -41.04,-23.32 -47.25,-19.48 -52.65,-16.15 -57.96,-12.87 -63.11,-9.69 -68.48,-6.37 -75.01,-1.86 -81.18,2.23 -87.23,7.08 -92.89,11.71 -97.05,16.51 -101.31,22.13 -104.72,27.77 -108.25,33.42 -111.26,39.84 -113.08,46.97 -113.86,55.12 -113.70,61.92 -113.01,69.68 -113.03,76.81 -113.09,83.52 -113.15,89.84 -113.21,95.64 -113.28,103.34 -113.33,108.02 -113.37,114.21 -113.41,120.57 -113.45,126.31 -113.49,132.36 -113.51,135.69 -113.54,140.24 -111.11,146.19 -107.47,152.38 -101.28,156.33 -96.11,158.80 -89.86,161.79 -85.26,163.99 -80.17,166.42 -74.34,169.21 -68.67,171.92 -65.24,173.56 -59.74,176.18 -54.66,178.61 -48.41,181.60 -42.32,184.51 -36.14,187.46 -31.31,189.77 -25.34,192.62 -19.72,193.61 -12.42,192.56 -7.35,190.67 -2.08,188.71 1.93,187.22 8.18,184.89 12.38,182.83 15.38,178.25 16.40,173.07 14.68,168.44 10.80,164.56 6.03,161.04 -0.78,158.37 -8.85,157.79 -13.29,157.21 -17.89,156.60 -22.70,154.87 -26.02,153.67 -33.73,150.60 -40.02,148.21 -45.87,145.60 -52.39,142.70 -57.78,140.30 -63.46,137.77 -69.13,135.25 -74.01,133.07 -77.49,130.87 -81.12,128.59 -83.54,125.66 -85.47,121.93 -86.10,116.74 -86.65,112.24 -87.27,107.09 -87.96,101.35 -88.55,96.46 -89.08,92.11 -89.56,88.14 -90.24,82.90 -90.94,74.36 -89.09,68.44 -83.93,64.76 -77.25,62.85 -70.61,64.10 -66.39,65.55 -62.42,69.13 -59.15,72.67 -55.91,76.28 -53.78,80.25 -51.52,84.86 -48.93,90.15 -46.93,94.22 -44.67,98.84 -42.48,103.31 -39.55,109.29 -37.56,113.36 -35.88,116.77 -33.85,119.36 -31.24,122.71 -25.79,125.87 -20.28,127.51 -15.18,128.06 -8.72,127.86 -4.75,127.56 0.28,127.17 5.68,127.91 9.95,130.26 13.07,132.89 16.54,137.15 19.98,142.37 22.41,147.37 24.52,153.55 26.58,160.27 28.26,165.97 29.88,172.75 31.68,178.57 33.59,185.02 36.55,190.47 40.59,196.27 45.78,200.18 52.43,202.81 59.86,203.54 66.05,203.12 73.44,201.74 79.51,198.99 83.32,195.69 87.05,190.99 89.45,185.72 92.57,181.46 97.62,178.82 102.14,178.19 106.19,178.65 111.90,179.63 116.44,181.99 120.53,185.77 124.14,191.54 126.41,196.44 127.22,201.96 127.05,208.99 124.18,216.57 122.00,222.23 123.01,228.50 125.79,234.18 130.14,238.64 135.77,240.75 142.38,244.54 145.98,249.73 147.44,255.80 147.15,261.01 145.66,265.85 142.92,270.88 139.46,276.75 137.82,283.39 137.56,290.36 140.11,295.96 143.36,302.70 148.04,309.02 152.19,312.04 157.87,316.17 161.93,319.73 165.33,321.59 170.79,322.54 175.37,321.66 179.98,319.39 182.84,317.30 186.53,313.59 188.95,308.27 192.61,304.03 196.92,299.95 199.71,297.31 203.09,294.11 206.09,291.27 209.62,287.93 213.67,284.10 216.15,281.76 218.73,279.32 221.22,275.79 223.89,272.00 226.97,267.63 228.52,265.43 232.33,260.02 234.97,256.28 238.74,250.93 239.51,248.00 240.42,244.55 241.83,239.22 243.37,233.40 245.31,226.05 246.61,221.16 248.08,215.60 249.51,210.19 251.96,205.83 257.51,200.87 262.83,197.53 268.36,194.23 272.49,191.77 277.37,187.87 282.04,182.83 287.72,177.25 290.82,172.99 294.17,168.38 298.02,163.08 301.63,158.12 304.53,154.13 308.45,150.66 313.45,146.31 318.35,144.31 324.12,143.92 329.86,144.46 336.09,143.67 340.42,140.25 342.67,135.10 341.85,128.35 339.35,121.47 337.40,114.62 338.06,108.02 340.87,103.06 344.22,98.53 346.58,95.35 349.79,91.02 352.64,87.17 355.46,83.36 358.26,76.65 358.41,72.00 357.00,66.11 356.64,60.16 358.94,55.48 363.47,51.65 369.14,48.23 375.15,46.64 379.23,45.80 384.04,44.81 390.58,43.51 397.44,42.25 401.77,41.44 406.89,38.91 409.43,36.42 413.09,32.88 414.37,29.09 413.91,24.32 411.59,20.43 406.60,18.53 401.59,17.26 396.29,16.95 387.36,16.53 377.26,17.65 369.83,17.59 363.71,17.50 356.85,17.42 349.98,17.72 336.83,16.96 328.30,17.61 317.57,17.70 308.24,17.26 298.74,18.51 290.88,20.22 281.31,20.13 274.08,18.39 268.16,16.04 260.92,15.34 252.92,16.89 244.89,18.18 237.45,18.31 230.02,18.44 223.45,16.33 218.71,12.00 214.49,7.69 207.88,7.19 202.03,9.19 196.23,9.82 190.71,8.32 184.51,6.15 176.57,5.20 169.63,5.60 163.00,7.22 156.49,9.36 146.37,13.38 135.52,17.55 129.80,19.29 121.82,20.86 114.81,20.81 107.92,20.21 101.01,19.39 94.00,18.67 86.13,17.07 77.34,15.07 70.28,12.94 63.34,10.27 57.34,8.00 52.00,6.00 46.00,4.00 40.00,2.00 35.07,0.86 29.36,0.00 22.71,0.34 17.26,1.75 12.47,3.97 8.28,6.98 5.40,10.75 1.93,16.34 0.00,21.78 -1.03,30.58 0.22,39.25 2.45,45.33 6.64,52.67 8.94,57.86 7.46,62.74 2.65,65.12 -4.63,64.31 -10.95,66.69 -15.94,70.29 -18.47,74.23 -19.54,80.51 -15.22,85.83 -9.32,87.98 -1.56,87.44 2.55,82.81 4.39,75.90 8.77,69.56 17.10,67.77 27.24,69.93">
        <lane id="25304430_0" index="0" disallow="tram rail_urban rail rail_electric rail_fast ship" speed="16.67" length="3750.45" shape="75.14,61.09 83.02,59.17 90.33,55.24 96.46,49.76 99.95,42.26 106.78,37.17 113.41,38.48 120.87,40.92 123.81,49.44 123.35,56.62 124.19,60.93 129.24,65.28 136.38,69.94 142.11,74.84 147.89,78.86 154.66,82.11 162.23,84.11 168.97,83.93 171.40,80.16 174.35,74.17 177.68,71.17 183.94,70.27 188.78,69.17 192.69,66.68 192.55,61.78 189.88,56.12 189.43,49.42 191.62,43.67 195.20,38.48 201.56,32.66 206.85,28.49 212.93,25.36 222.02,25.13 231.80,25.22 240.05,25.29 251.30,25.39 261.57,25.48 273.58,25.84 285.55,25.88 292.81,25.90 300.31,25.93 308.81,25.96 316.14,25.98 323.32,28.56 327.14,35.74 327.45,43.54 327.40,52.03 327.45,61.35 327.49,68.26 327.52,74.10 327.55,79.00 327.58,84.85 327.62,90.86 327.67,96.37 327.68,101.10 327.71,105.98 327.62,111.35 326.26,116.25 323.20,120.82 319.48,122.81 314.32,124.77 310.44,126.22 301.63,128.64 294.80,130.51 286.99,132.43 280.96,133.91 274.43,135.51 268.50,136.97 261.02,138.77 255.37,140.12 249.13,141.61 243.42,142.98 237.04,144.50 232.11,144.47 227.15,143.81 222.59,142.36 218.18,140.38 215.34,136.73 214.29,133.35 214.13,129.02 215.78,125.78 218.73,122.56 226.79,118.69 231.52,117.04 238.37,116.25 247.02,116.81 255.12,117.92 260.18,118.48 264.91,117.87 271.51,115.50 279.34,111.83 285.56,107.73 290.94,104.19 297.79,99.68 302.91,93.52 306.83,85.98 309.33,77.64 310.84,69.47 311.01,61.01 308.56,53.10 304.31,46.25 295.04,42.84 285.13,40.34 274.22,39.99 268.64,41.27 265.97,43.03 263.94,47.25 263.01,50.89 262.33,59.32 264.20,66.81 271.13,73.09 279.02,76.08 286.84,82.26 289.11,91.24 284.90,100.64 276.91,107.03 263.31,109.64 252.26,105.75 244.79,98.75 242.84,90.96 237.16,85.75 228.69,82.45 215.37,80.85 204.93,83.35 196.80,90.85 193.36,98.70 192.20,106.36 188.53,120.70 185.62,127.48 183.26,132.99 178.80,144.30 174.81,155.41 171.12,162.61 164.12,173.76 153.73,179.73 143.67,181.49 131.72,178.66 121.97,172.53 116.06,164.17 108.58,152.28 102.21,143.56 98.88,138.39 95.40,133.03 92.13,128.79 89.08,124.84 85.12,120.14 80.76,114.96 77.34,111.61 73.11,107.49 67.39,101.33 61.07,97.63 54.97,96.22 47.63,95.87 40.16,97.76 34.88,101.15 29.57,105.75 22.65,109.78 17.11,110.96 12.01,112.05 2.94,112.49 -6.06,111.16 -15.02,108.60 -22.82,103.25 -28.77,97.59 -35.21,90.52 -41.89,82.29 -48.59,74.16 -53.46,68.20 -56.56,61.97 -59.45,54.74 -60.48,47.21 -59.81,39.58 -57.69,30.91 -53.25,23.08 -48.65,16.20 -44.29,9.62 -39.62,3.05 -33.46,-3.46 -27.16,-9.82 -19.39,-16.25 -11.72,-19.43 -3.26,-21.11 4.88,-24.56 10.44,-29.41 14.58,-37.11 18.08,-45.12 19.88,-54.31 20.87,-61.43 22.69,-69.13 24.04,-74.29 25.15,-78.50 26.92,-82.18 29.13,-86.77 31.94,-91.93 34.64,-96.55 37.55,-101.51 40.07,-105.81 42.56,-110.06 45.10,-114.39 49.59,-121.87 54.76,-129.97 62.01,-132.44 70.06,-132.84 75.07,-135.95 78.32,-140.91 76.16,-147.97 71.79,-151.99 64.65,-154.86 57.13,-154.18 50.07,-152.83 44.67,-147.68 43.10,-141.74 44.48,-133.46 44.82,-125.81 41.02,-119.09 37.75,-114.07 33.66,-108.44 29.99,-102.37 25.95,-95.67 22.38,-89.75 18.43,-83.21 14.44,-76.62 11.67,-72.03 9.07,-67.73 5.04,-62.61 0.39,-56.71 -4.09,-51.03 -7.60,-46.58 -11.37,-41.80 -14.49,-37.85 -19.16,-34.96 -24.92,-31.40 -30.92,-27.69 -35.13,-25.09 -40.20,-21.96 -46.41,-18.12 -51.81,-14.79 -57.12,-11.51 -62.27,-8.33 -67.60,-5.03 -74.11,-0.53 -80.24,3.52 -86.22,8.32 -91.77,12.86 -95.81,17.52 -99.98,23.03 -103.36,28.61 -106.84,34.19 -109.75,40.38 -111.50,47.25 -112.26,55.18 -112.10,61.83 -111.41,69.61 -111.43,76.82 -111.49,83.53 -111.55,89.86 -111.61,95.66 -111.68,103.36 -111.73,108.03 -111.77,114.22 -111.81,120.58 -111.85,126.32 -111.89,132.37 -111.91,135.70 -111.94,139.93 -109.67,145.48 -106.29,151.24 -100.50,154.93 -95.42,157.36 -89.17,160.35 -84.57,162.55 -79.48,164.98 -73.65,167.77 -67.98,170.48 -64.55,172.12 -59.05,174.74 -53.97,177.17 -47.72,180.16 -41.63,183.07 -35.45,186.02 -30.62,188.33 -24.85,191.08 -19.69,191.99 -12.82,191.00 -7.91,189.17 -2.64,187.21 1.37,185.72 7.55,183.42 11.28,181.59 13.87,177.63 14.74,173.20 13.30,169.32 9.75,165.78 5.25,162.45 -1.14,159.95 -9.01,159.38 -13.50,158.80 -18.27,158.16 -23.24,156.38 -26.59,155.17 -34.31,152.09 -40.63,149.69 -46.52,147.06 -53.04,144.16 -58.43,141.76 -64.11,139.23 -69.78,136.71 -74.77,134.48 -78.34,132.22 -82.19,129.81 -84.88,126.55 -87.02,122.41 -87.69,116.93 -88.24,112.43 -88.86,107.28 -89.55,101.54 -90.14,96.65 -90.67,92.30 -91.15,88.34 -91.83,83.07 -92.56,74.18 -90.46,67.45 -84.63,63.30 -77.33,61.21 -70.20,62.55 -65.56,64.14 -61.29,67.99 -57.97,71.59 -54.59,75.35 -52.36,79.52 -50.08,84.16 -47.49,89.45 -45.49,93.52 -43.23,98.14 -41.04,102.61 -38.11,108.59 -36.12,112.66 -34.52,115.91 -32.59,118.38 -30.17,121.48 -25.15,124.39 -19.96,125.93 -15.12,126.46 -8.81,126.26 -4.87,125.96 0.33,125.56 6.19,126.37 10.86,128.93 14.22,131.76 17.83,136.20 21.37,141.58 23.89,146.76 26.04,153.06 28.11,159.81 29.81,165.56 31.42,172.33 33.21,178.11 35.08,184.40 37.91,189.63 41.76,195.15 46.57,198.77 52.81,201.24 59.88,201.93 65.85,201.53 72.96,200.20 78.64,197.63 82.16,194.58 85.68,190.15 88.06,184.91 91.50,180.21 97.12,177.27 102.12,176.58 106.42,177.07 112.42,178.10 117.37,180.67 121.77,184.74 125.55,190.78 127.96,195.98 128.82,201.86 128.64,209.30 125.67,217.14 123.65,222.40 124.55,228.01 127.11,233.25 131.04,237.27 136.45,239.30 143.49,243.33 147.47,249.06 149.05,255.65 148.74,261.29 147.14,266.47 144.31,271.67 140.96,277.36 139.41,283.61 139.17,290.04 141.56,295.28 144.74,301.87 149.18,307.87 153.13,310.75 158.87,314.92 162.85,318.41 165.87,320.06 170.78,320.91 174.86,320.13 179.15,318.02 181.79,316.08 185.19,312.67 187.59,307.40 191.45,302.92 195.82,298.79 198.61,296.15 201.99,292.95 204.99,290.11 208.52,286.77 212.57,282.94 215.05,280.60 217.51,278.27 219.91,274.87 222.58,271.08 225.66,266.71 227.21,264.51 231.02,259.10 233.66,255.36 237.27,250.24 237.96,247.59 238.87,244.14 240.28,238.81 241.82,232.99 243.76,225.64 245.06,220.75 246.53,215.19 248.02,209.58 250.70,204.81 256.54,199.59 261.99,196.17 267.54,192.86 271.58,190.45 276.28,186.69 280.89,181.71 286.50,176.20 289.53,172.05 292.88,167.44 296.73,162.14 300.34,157.18 303.34,153.05 307.40,149.46 312.60,144.93 317.98,142.73 324.14,142.31 329.83,142.85 335.45,142.14 339.11,139.24 341.03,134.86 340.28,128.72 337.83,121.96 335.78,114.76 336.50,107.52 339.53,102.19 342.93,97.58 345.29,94.40 348.50,90.07 351.35,86.22 354.06,82.56 356.67,76.30 356.80,72.16 355.41,66.35 355.02,59.83 357.65,54.47 362.53,50.35 368.51,46.74 374.78,45.08 378.91,44.23 383.72,43.24 390.28,41.94 397.15,40.68 401.26,39.91 405.95,37.59 408.31,35.27 411.70,32.00 412.74,28.90 412.35,24.83 410.50,21.73 406.12,20.06 401.34,18.85 396.21,18.55 387.41,18.13 377.34,19.25 369.81,19.19 363.69,19.10 356.88,19.02 349.97,19.32 336.84,18.56 328.37,19.21 317.54,19.30 308.31,18.86 299.01,20.09 291.04,21.82 281.11,21.73 273.60,19.92 267.78,17.61 261.00,16.95 253.20,18.47 245.03,19.78 237.48,19.91 229.78,20.04 222.63,17.75 217.60,13.15 213.77,9.24 208.09,8.81 202.38,10.76 196.10,11.44 190.24,9.85 184.15,7.72 176.52,6.81 169.87,7.19 163.44,8.76 157.04,10.86 146.95,14.87 136.04,19.06 130.19,20.84 121.97,22.46 114.73,22.41 107.76,21.80 100.83,20.98 93.76,20.25 85.79,18.63 76.93,16.62 69.76,14.45 62.77,11.76 56.78,9.50 51.47,7.51 45.49,5.52 39.57,3.54 34.77,2.43 29.28,1.61 22.95,1.93 17.80,3.26 13.28,5.36 9.41,8.14 6.72,11.66 3.38,17.04 1.57,22.15 0.58,30.56 1.78,38.86 3.91,44.65 8.07,51.95 10.64,57.76 8.79,63.87 2.94,66.76 -4.43,65.94 -10.19,68.11 -14.76,71.41 -16.95,74.82 -17.84,80.06 -14.26,84.48 -9.09,86.36 -2.32,85.89 1.10,82.03 2.92,75.22 7.81,68.13 17.10,66.13 27.46,68.34"/>
        <lane id="25304430_1" index="1" disallow="tram rail_urban rail rail_electric rail_fast ship" speed="16.67" length="3750.45" shape="75.90,64.20 84.18,62.19 92.19,57.88 99.08,51.70 102.51,44.34 107.56,40.59 112.61,41.58 118.37,43.46 120.57,49.88 120.13,56.82 121.25,62.63 127.32,67.84 134.46,72.50 140.15,77.38 146.27,81.64 153.54,85.13 161.85,87.33 170.75,87.09 174.20,81.74 176.95,76.13 179.10,74.19 184.52,73.41 190.04,72.17 195.93,68.40 195.73,61.02 193.04,55.30 192.67,49.90 194.48,45.17 197.62,40.60 203.64,35.10 208.59,31.19 213.75,28.54 222.04,28.33 231.78,28.42 240.03,28.49 251.28,28.59 261.51,28.68 273.52,29.04 285.55,29.08 292.79,29.10 300.29,29.13 308.79,29.16 315.58,29.18 321.08,31.16 323.98,36.60 324.25,43.60 324.20,52.03 324.25,61.37 324.29,68.28 324.32,74.12 324.35,79.02 324.38,84.87 324.42,90.88 324.47,96.39 324.48,101.12 324.51,105.96 324.42,110.89 323.32,114.89 320.98,118.38 318.16,119.89 313.18,121.77 309.46,123.18 300.79,125.56 294.00,127.41 286.23,129.33 280.20,130.81 273.67,132.41 267.74,133.87 260.28,135.65 254.63,137.00 248.39,138.49 242.68,139.86 236.68,141.30 232.33,141.27 227.85,140.67 223.73,139.36 220.22,137.78 218.22,135.23 217.47,132.81 217.35,129.74 218.44,127.62 220.67,125.18 228.01,121.65 232.24,120.18 238.45,119.47 246.70,119.99 254.72,121.10 260.22,121.70 265.67,120.99 272.73,118.46 280.90,114.63 287.32,110.41 292.70,106.87 299.95,102.10 305.59,95.30 309.81,87.18 312.45,78.40 314.04,69.79 314.21,60.55 311.50,51.76 306.45,43.63 295.98,39.78 285.57,37.16 273.90,36.77 267.36,38.29 263.47,40.85 260.92,46.15 259.85,50.37 259.09,59.58 261.34,68.53 269.43,75.87 277.42,78.90 284.00,84.10 285.73,90.94 282.30,98.62 275.53,104.03 263.55,106.34 253.96,102.95 247.67,97.05 245.72,89.24 238.88,82.99 229.47,79.33 215.19,77.61 203.37,80.43 194.14,88.95 190.26,97.80 189.06,105.72 185.49,119.66 182.68,126.22 180.30,131.77 175.80,143.18 171.87,154.13 168.34,161.03 161.84,171.38 152.63,176.67 143.77,178.23 132.98,175.66 124.21,170.17 118.72,162.39 111.22,150.48 104.85,141.74 101.56,136.65 98.02,131.17 94.67,126.83 91.56,122.82 87.56,118.08 83.10,112.78 79.58,109.33 75.41,105.25 69.41,98.81 62.27,94.63 55.41,93.04 47.31,92.65 38.86,94.78 32.96,98.59 27.71,103.13 21.49,106.76 16.45,107.84 11.59,108.87 3.10,109.27 -5.38,108.02 -13.64,105.66 -20.80,100.75 -26.49,95.35 -32.79,88.44 -39.41,80.27 -46.11,72.12 -50.76,66.46 -53.64,60.67 -56.33,53.92 -57.26,47.13 -56.65,40.10 -54.69,32.11 -50.53,24.76 -45.99,17.98 -41.65,11.44 -37.14,5.09 -31.16,-1.24 -25.00,-7.46 -17.73,-13.47 -10.78,-16.35 -2.32,-18.03 6.60,-21.82 12.98,-27.39 17.46,-35.71 21.16,-44.16 23.04,-53.79 24.01,-60.85 25.79,-68.35 27.14,-73.47 28.17,-77.40 29.80,-80.80 31.97,-85.31 34.72,-90.35 37.40,-94.93 40.31,-99.89 42.83,-104.19 45.32,-108.44 47.84,-112.75 52.31,-120.19 56.86,-127.31 62.61,-129.26 71.04,-129.68 77.35,-133.61 81.82,-140.41 78.96,-149.73 73.53,-154.75 65.13,-158.12 56.69,-157.36 48.55,-155.79 41.81,-149.38 39.82,-141.90 41.30,-133.12 41.58,-126.59 38.28,-120.75 35.11,-115.89 31.00,-110.22 27.25,-104.03 23.21,-97.33 19.64,-91.41 15.69,-84.87 11.70,-78.28 8.93,-73.69 6.43,-69.55 2.52,-64.59 -2.13,-58.69 -6.61,-53.01 -10.12,-48.56 -13.89,-43.78 -16.65,-40.27 -20.84,-37.68 -26.60,-34.12 -32.60,-30.41 -36.81,-27.81 -41.88,-24.68 -48.09,-20.84 -53.49,-17.51 -58.80,-14.23 -63.95,-11.05 -69.36,-7.71 -75.91,-3.19 -82.12,0.94 -88.24,5.84 -94.01,10.56 -98.29,15.50 -102.64,21.23 -106.08,26.93 -109.66,32.65 -112.77,39.30 -114.66,46.69 -115.46,55.06 -115.30,62.01 -114.61,69.75 -114.63,76.80 -114.69,83.51 -114.75,89.82 -114.81,95.62 -114.88,103.32 -114.93,108.01 -114.97,114.20 -115.01,120.56 -115.05,126.30 -115.09,132.35 -115.11,135.68 -115.14,140.55 -112.55,146.90 -108.65,153.52 -102.06,157.73 -96.80,160.24 -90.55,163.23 -85.95,165.43 -80.86,167.86 -75.03,170.65 -69.36,173.36 -65.93,175.00 -60.43,177.62 -55.35,180.05 -49.10,183.04 -43.01,185.95 -36.83,188.90 -32.00,191.21 -25.83,194.16 -19.75,195.23 -12.02,194.12 -6.79,192.17 -1.52,190.21 2.49,188.72 8.81,186.36 13.48,184.07 16.89,178.87 18.06,172.94 16.06,167.56 11.85,163.34 6.81,159.63 -0.42,156.79 -8.69,156.20 -13.08,155.62 -17.51,155.04 -22.16,153.36 -25.45,152.17 -33.15,149.11 -39.41,146.73 -45.22,144.14 -51.74,141.24 -57.13,138.84 -62.81,136.31 -68.48,133.79 -73.25,131.66 -76.64,129.52 -80.05,127.37 -82.20,124.77 -83.92,121.45 -84.51,116.55 -85.06,112.05 -85.68,106.90 -86.37,101.16 -86.96,96.27 -87.49,91.92 -87.97,87.94 -88.65,82.73 -89.32,74.54 -87.72,69.43 -83.23,66.22 -77.17,64.49 -71.02,65.65 -67.22,66.96 -63.55,70.27 -60.33,73.75 -57.23,77.21 -55.20,80.98 -52.96,85.56 -50.37,90.85 -48.37,94.92 -46.11,99.54 -43.92,104.01 -40.99,109.99 -39.00,114.06 -37.24,117.63 -35.11,120.34 -32.31,123.94 -26.43,127.35 -20.60,129.09 -15.24,129.66 -8.63,129.46 -4.63,129.16 0.23,128.78 5.17,129.45 9.04,131.59 11.92,134.02 15.25,138.10 18.59,143.16 20.93,147.98 23.00,154.04 25.05,160.73 26.71,166.38 28.34,173.17 30.15,179.03 32.10,185.64 35.19,191.31 39.42,197.39 44.99,201.59 52.05,204.38 59.84,205.15 66.25,204.71 73.92,203.28 80.38,200.35 84.48,196.80 88.42,191.83 90.84,186.53 93.64,182.71 98.12,180.37 102.16,179.80 105.96,180.23 111.38,181.16 115.51,183.31 119.29,186.80 122.73,192.30 124.86,196.90 125.62,202.06 125.46,208.68 122.69,216.00 120.35,222.06 121.47,228.99 124.47,235.11 129.24,240.01 135.09,242.20 141.27,245.75 144.49,250.40 145.83,255.95 145.56,260.73 144.18,265.23 141.53,270.09 137.96,276.14 136.23,283.17 135.95,290.68 138.66,296.64 141.98,303.53 146.90,310.17 151.25,313.33 156.87,317.42 161.01,321.05 164.79,323.12 170.80,324.17 175.88,323.19 180.81,320.76 183.89,318.52 187.87,314.51 190.31,309.14 193.77,305.14 198.02,301.11 200.81,298.47 204.19,295.27 207.19,292.43 210.72,289.09 214.77,285.26 217.25,282.92 219.95,280.37 222.53,276.71 225.20,272.92 228.28,268.55 229.83,266.35 233.64,260.94 236.28,257.20 240.21,251.62 241.06,248.41 241.97,244.96 243.38,239.63 244.92,233.81 246.86,226.46 248.16,221.57 249.63,216.01 251.00,210.80 253.22,206.85 258.48,202.15 263.67,198.89 269.18,195.60 273.40,193.09 278.46,189.05 283.19,183.95 288.94,178.30 292.11,173.93 295.46,169.32 299.31,164.02 302.92,159.06 305.72,155.21 309.50,151.86 314.30,147.69 318.72,145.89 324.10,145.53 329.89,146.07 336.73,145.20 341.73,141.26 344.31,135.34 343.42,127.98 340.87,120.98 339.02,114.48 339.62,108.52 342.21,103.93 345.51,99.48 347.87,96.30 351.08,91.97 353.93,88.12 356.86,84.16 359.85,77.00 360.02,71.84 358.59,65.87 358.26,60.49 360.23,56.49 364.41,52.95 369.77,49.72 375.52,48.20 379.55,47.37 384.36,46.38 390.88,45.08 397.73,43.82 402.28,42.97 407.83,40.23 410.55,37.57 414.48,33.76 416.00,29.28 415.47,23.81 412.68,19.13 407.08,17.00 401.84,15.67 396.37,15.35 387.31,14.93 377.18,16.05 369.85,15.99 363.73,15.90 356.82,15.82 349.99,16.12 336.82,15.36 328.23,16.01 317.60,16.10 308.17,15.66 298.47,16.93 290.72,18.62 281.51,18.53 274.56,16.86 268.54,14.47 260.84,13.73 252.64,15.31 244.75,16.58 237.42,16.71 230.26,16.84 224.27,14.91 219.82,10.85 215.21,6.14 207.67,5.57 201.68,7.62 196.36,8.20 191.18,6.79 184.87,4.58 176.62,3.59 169.39,4.01 162.56,5.68 155.94,7.86 145.79,11.89 135.00,16.04 129.41,17.74 121.67,19.26 114.89,19.21 108.08,18.62 101.19,17.80 94.24,17.09 86.47,15.51 77.75,13.52 70.80,11.43 63.91,8.78 57.90,6.50 52.53,4.49 46.51,2.48 40.43,0.46 35.37,-0.71 29.44,-1.61 22.47,-1.25 16.72,0.24 11.66,2.58 7.15,5.82 4.08,9.84 0.48,15.64 -1.57,21.41 -2.64,30.60 -1.34,39.64 0.99,46.01 5.21,53.39 7.24,57.96 6.13,61.61 2.36,63.48 -4.83,62.68 -11.71,65.27 -17.12,69.17 -19.99,73.64 -21.24,80.96 -16.18,87.18 -9.55,89.60 -0.80,88.99 4.00,83.59 5.86,76.58 9.73,70.99 17.10,69.41 26.79,71.47"/>
    </edge>
    <edge id="25304432" from="4370324319" to="275632284" priority="11" type="highway.secondary" spreadType="center" shape="27.24,69.93 35.24,71.95 41.08,76.58 45.26,79.98 51.36,82.05 57.70,82.04 62.06,78.69 64.09,75.32 65.44,71.06 68.59,66.71 75.03,62.76">
        <lane id="25304432_0" index="0" disallow="tram rail_urban rail rail_electric rail_fast ship" speed="16.67" length="60.08" shape="27.74,68.41 35.96,70.48 42.08,75.33 46.05,78.56 51.62,80.45 57.16,80.44 60.85,77.61 62.62,74.66 63.99,70.33 67.48,65.51 73.76,61.66"/>