<?xml version="1.0" encoding="UTF-8"?>

<!-- generated on Mon 25 Nov 2019 14:59:26 GMT by Eclipse SUMO netedit Version 1.3.1
<configuration xmlns:xsi="http://www.w3.org/2001/XMLSchema-instance" xsi:noNamespaceSchemaLocation="http://sumo.dlr.de/xsd/netconvertConfiguration.xsd">

    <input>
        <sumo-net-file value="/home/benedikt/dev/drive/dataset_public/3lane_new/map.net.xml"/>
    </input>

    <output>
        <output-file value="/home/benedikt/dev/drive/dataset_public/3lane_new/map.net.xml"/>
    </output>

    <processing>
        <geometry.max-grade.fix value="false"/>
        <offset.disable-normalization value="true"/>
        <opposites.guess.fix-lengths value="true"/>
        <lefthand value="false"/>
    </processing>

    <junctions>
        <no-turnarounds value="true"/>
        <junctions.corner-detail value="5"/>
        <junctions.limit-turn-speed value="5.5"/>
        <rectangular-lane-cut value="false"/>
    </junctions>

    <pedestrian>
        <walkingareas value="false"/>
    </pedestrian>

</configuration>
-->

<net version="1.3" junctionCornerDetail="5" limitTurnSpeed="5.50" xmlns:xsi="http://www.w3.org/2001/XMLSchema-instance" xsi:noNamespaceSchemaLocation="http://sumo.dlr.de/xsd/net_file.xsd">

    <location netOffset="-630882.85,-4856133.12" convBoundary="-198.19,-117.82,200.00,301.51" origBoundary="-79.371708,43.846679,-79.369237,43.847436" projParameter="+proj=utm +zone=17 +ellps=WGS84 +datum=WGS84 +units=m +no_defs"/>

    <type id="highway.bridleway" priority="1" numLanes="1" speed="2.78" allow="pedestrian" oneway="1" width="2.00"/>
    <type id="highway.bus_guideway" priority="1" numLanes="1" speed="27.78" allow="bus" oneway="1"/>
    <type id="highway.cycleway" priority="1" numLanes="1" speed="8.33" allow="bicycle" oneway="0" width="1.00"/>
    <type id="highway.footway" priority="1" numLanes="1" speed="2.78" allow="pedestrian" oneway="1" width="2.00"/>
    <type id="highway.ford" priority="1" numLanes="1" speed="2.78" allow="army" oneway="0"/>
    <type id="highway.living_street" priority="2" numLanes="1" speed="2.78" disallow="tram rail_urban rail rail_electric ship" oneway="0"/>
    <type id="highway.motorway" priority="14" numLanes="2" speed="39.44" allow="private emergency authority army vip passenger hov taxi bus coach delivery truck trailer motorcycle evehicle custom1 custom2" oneway="1"/>
    <type id="highway.motorway_link" priority="9" numLanes="1" speed="22.22" allow="private emergency authority army vip passenger hov taxi bus coach delivery truck trailer motorcycle evehicle custom1 custom2" oneway="1"/>
    <type id="highway.path" priority="1" numLanes="1" speed="2.78" allow="pedestrian bicycle" oneway="1" width="2.00"/>
    <type id="highway.pedestrian" priority="1" numLanes="1" speed="2.78" allow="pedestrian" oneway="1" width="2.00"/>
    <type id="highway.primary" priority="12" numLanes="2" speed="27.78" disallow="tram rail_urban rail rail_electric ship" oneway="0"/>
    <type id="highway.primary_link" priority="7" numLanes="1" speed="22.22" disallow="tram rail_urban rail rail_electric ship" oneway="0"/>
    <type id="highway.raceway" priority="15" numLanes="2" speed="83.33" allow="vip" oneway="0"/>
    <type id="highway.residential" priority="3" numLanes="1" speed="13.89" disallow="tram rail_urban rail rail_electric ship" oneway="0"/>
    <type id="highway.secondary" priority="11" numLanes="2" speed="27.78" disallow="tram rail_urban rail rail_electric ship" oneway="0"/>
    <type id="highway.secondary_link" priority="6" numLanes="1" speed="22.22" disallow="tram rail_urban rail rail_electric ship" oneway="0"/>
    <type id="highway.service" priority="1" numLanes="1" speed="5.56" allow="pedestrian delivery bicycle" oneway="0"/>
    <type id="highway.stairs" priority="1" numLanes="1" speed="1.39" allow="pedestrian" oneway="1" width="2.00"/>
    <type id="highway.step" priority="1" numLanes="1" speed="1.39" allow="pedestrian" oneway="1" width="2.00"/>
    <type id="highway.steps" priority="1" numLanes="1" speed="1.39" allow="pedestrian" oneway="1" width="2.00"/>
    <type id="highway.tertiary" priority="10" numLanes="1" speed="22.22" disallow="tram rail_urban rail rail_electric ship" oneway="0"/>
    <type id="highway.tertiary_link" priority="5" numLanes="1" speed="22.22" disallow="tram rail_urban rail rail_electric ship" oneway="0"/>
    <type id="highway.track" priority="1" numLanes="1" speed="5.56" disallow="tram rail_urban rail rail_electric ship" oneway="0"/>
    <type id="highway.trunk" priority="13" numLanes="2" speed="27.78" disallow="pedestrian bicycle tram rail_urban rail rail_electric ship" oneway="0"/>
    <type id="highway.trunk_link" priority="8" numLanes="1" speed="22.22" disallow="pedestrian bicycle tram rail_urban rail rail_electric ship" oneway="0"/>
    <type id="highway.unclassified" priority="4" numLanes="1" speed="13.89" disallow="tram rail_urban rail rail_electric ship" oneway="0"/>
    <type id="highway.unsurfaced" priority="1" numLanes="1" speed="8.33" disallow="tram rail_urban rail rail_electric ship" oneway="0"/>
    <type id="railway.light_rail" priority="19" numLanes="1" speed="27.78" allow="rail_urban" oneway="1"/>
    <type id="railway.preserved" priority="16" numLanes="1" speed="27.78" allow="rail" oneway="1"/>
    <type id="railway.rail" priority="20" numLanes="1" speed="83.33" allow="rail rail_electric" oneway="1"/>
    <type id="railway.subway" priority="18" numLanes="1" speed="27.78" allow="rail_urban" oneway="1"/>
    <type id="railway.tram" priority="17" numLanes="1" speed="13.89" allow="tram" oneway="1"/>

    <edge id=":4370324319_0" function="internal">
        <lane id=":4370324319_0_0" index="0" disallow="tram rail_urban rail rail_electric rail_fast ship" speed="16.67" length="0.28" shape="53.84,152.36 53.60,152.12"/>
        <lane id=":4370324319_0_1" index="1" disallow="tram rail_urban rail rail_electric rail_fast ship" speed="16.67" length="0.28" shape="56.10,150.10 55.90,149.90"/>
        <lane id=":4370324319_0_2" index="2" disallow="tram rail_urban rail rail_electric rail_fast ship" speed="16.67" length="0.28" shape="58.36,147.84 58.21,147.68"/>
    </edge>
    <edge id=":446557694_0" function="internal">
        <lane id=":446557694_0_0" index="0" disallow="tram rail_urban rail rail_electric rail_fast ship" speed="16.67" length="1.51" shape="-51.78,42.77 -51.88,42.66 -51.96,42.59 -52.05,42.54 -52.18,42.46"/>
        <lane id=":446557694_0_1" index="1" disallow="tram rail_urban rail rail_electric rail_fast ship" speed="12.93" length="1.51" shape="-49.48,40.54 -49.79,40.23 -50.02,40.02 -50.28,39.86 -50.67,39.64"/>
        <lane id=":446557694_0_2" index="2" disallow="tram rail_urban rail rail_electric rail_fast ship" speed="16.61" length="1.51" shape="-47.17,38.32 -47.69,37.79 -48.08,37.46 -48.51,37.18 -49.16,36.82"/>
    </edge>

    <edge id="25304430" from="4370324319" to="446557694" priority="11" type="highway.secondary" spreadType="center">
        <lane id="25304430_0" index="0" disallow="tram rail_urban rail rail_electric rail_fast ship" speed="16.67" length="151.86" shape="53.60,152.12 -51.78,42.77"/>
        <lane id="25304430_1" index="1" disallow="tram rail_urban rail rail_electric rail_fast ship" speed="16.67" length="151.86" shape="55.90,149.90 -49.48,40.54"/>
        <lane id="25304430_2" index="2" disallow="tram rail_urban rail rail_electric rail_fast ship" speed="16.67" length="151.86" shape="58.21,147.68 -47.17,38.32"/>
    </edge>
    <edge id="38014010" from="446557694" to="4370324319" priority="11" type="highway.secondary" spreadType="center" shape="-50.00,40.00 -60.43,34.42 -69.12,31.88 -79.66,30.99 -91.81,36.59 -96.35,45.67 -94.16,58.25 -87.37,63.99 -78.41,64.20 -70.34,62.03 -64.74,61.63 -57.14,63.30 -50.66,67.66 -47.19,74.95 -47.10,83.37 -48.68,91.47 -48.25,100.10 -45.65,108.46 -39.17,117.12 -29.68,122.29 -18.99,124.00 -8.63,120.86 -1.26,120.94 5.42,123.50 11.99,129.65 12.66,136.23 9.75,144.30 4.24,152.63 2.82,161.19 5.53,169.59 14.13,178.19 25.46,182.92 38.91,182.24 45.80,183.42 50.05,188.66 53.13,194.41 51.49,200.34 46.85,205.25 39.47,205.95 34.12,203.11 30.11,199.98 24.41,197.63 17.38,197.19 11.17,197.92 -4.39,202.97 -15.16,211.40 -24.90,224.81 -27.80,242.67 -19.47,265.34 -3.80,273.67 14.21,278.89 33.99,274.28 43.96,264.68 45.41,249.93 34.48,243.41 22.98,242.77 14.92,246.34 8.04,250.06 -2.93,249.95 -9.37,243.59 -9.43,234.80 -1.95,227.53 10.05,224.61 29.86,225.03 50.71,231.41 66.07,243.76 71.17,265.95 60.58,286.90 36.74,299.77 10.73,301.51 -16.95,297.12 -35.73,285.96 -69.09,231.38 -99.77,165.35 -105.26,158.10 -112.34,153.23 -120.11,148.16 -125.36,142.94 -128.94,133.74 -130.93,122.45 -146.13,65.18 -146.94,56.26 -144.62,48.59 -141.03,37.86 -139.83,27.52 -143.43,11.18 -151.63,1.14 -166.27,-7.13 -183.95,-19.34 -194.29,-36.09 -198.19,-55.26 -196.26,-76.07 -184.25,-90.93 -124.20,-116.59 -115.00,-117.82 -108.07,-112.94 -103.34,-103.30 -105.66,-95.43 -112.06,-87.37 -120.95,-76.57 -123.60,-69.33 -122.61,-62.37 -119.72,-55.15 -70.04,5.51 -60.71,9.03 -52.00,7.56 -44.00,4.00 -30.00,4.00 170.00,4.00 178.12,4.72 186.00,6.00 190.71,8.32 195.32,11.87 198.00,16.00 200.00,22.00 199.28,28.96 196.00,34.00 192.00,38.00 186.00,40.00 180.00,40.00 174.13,37.87 168.40,34.13 163.21,30.92 158.51,28.21 153.13,25.73 148.00,24.00 141.71,23.74 134.16,24.26 126.00,26.00 116.00,30.00 108.34,34.49 95.05,47.60 88.58,53.08 82.00,56.00 74.90,56.99 67.98,55.08 43.19,41.37 35.91,39.64 28.00,40.18 21.64,44.36 18.00,50.00 18.00,58.00 20.33,65.44 41.35,97.51 46.67,103.48 52.30,107.55 58.70,110.33 64.74,112.30 71.83,114.80 78.00,118.00 83.98,122.64 88.00,126.00 94.00,134.00 95.86,139.76 96.00,146.00 94.36,152.44 90.22,157.78 84.00,162.00 78.04,163.11 72.00,162.00 64.00,158.00 56.00,150.00">
        <lane id="38014010_0" index="0" disallow="tram rail_urban rail rail_electric rail_fast ship" speed="16.67" length="2198.22" shape="-52.18,42.46 -61.65,37.40 -69.71,35.04 -79.09,34.25 -89.45,39.03 -93.02,46.16 -91.21,56.56 -86.17,60.82 -78.80,60.99 -70.87,58.86 -64.51,58.41 -55.86,60.31 -48.15,65.49 -44.00,74.21 -43.90,83.66 -45.46,91.70 -45.07,99.54 -42.76,106.98 -37.03,114.64 -28.63,119.22 -19.21,120.72 -9.09,117.65 -0.65,117.75 7.15,120.74 15.05,128.13 15.92,136.63 12.63,145.75 7.29,153.83 6.10,160.95 8.34,167.87 15.95,175.48 26.02,179.69 39.10,179.03 47.53,180.47 52.73,186.88 56.56,194.03 54.36,201.96 48.35,208.32 38.82,209.23 32.37,205.81 28.49,202.77 23.68,200.79 17.47,200.40 11.86,201.06 -2.86,205.84 -12.83,213.64 -21.86,226.07 -24.51,242.35 -16.89,263.09 -2.59,270.69 14.30,275.58 32.41,271.36 40.89,263.19 42.03,251.64 33.52,246.56 23.57,246.01 16.33,249.21 8.83,253.27 -4.26,253.14 -12.56,244.94 -12.64,233.46 -3.55,224.63 9.70,221.40 30.37,221.84 52.24,228.53 68.94,241.96 74.55,266.36 62.98,289.24 37.65,302.92 10.58,304.73 -18.06,300.18 -38.05,288.31 -71.92,232.89 -102.53,167.01 -107.50,160.44 -114.12,155.89 -122.13,150.66 -128.10,144.73 -132.04,134.61 -134.06,123.14 -149.29,65.74 -150.18,55.93 -147.67,47.62 -144.17,37.16 -143.07,27.68 -146.39,12.61 -153.73,3.63 -167.97,-4.41 -186.32,-17.09 -197.31,-34.89 -201.42,-55.09 -199.36,-77.33 -186.24,-93.56 -125.06,-119.70 -114.18,-121.16 -105.56,-115.08 -99.92,-103.59 -102.77,-93.93 -109.57,-85.36 -118.13,-74.96 -120.32,-68.98 -119.50,-63.20 -116.93,-56.80 -68.11,2.82 -60.39,5.73 -52.93,4.47 -44.68,0.80 -30.00,0.80 170.14,0.80 178.52,1.54 186.99,2.92 192.41,5.59 197.71,9.67 200.91,14.60 203.25,21.64 202.38,30.06 198.50,36.03 193.73,40.80 186.52,43.20 179.44,43.20 172.69,40.75 166.68,36.83 161.57,33.67 157.04,31.06 151.95,28.71 147.41,27.18 141.75,26.94 134.61,27.44 126.93,29.07 117.41,32.88 110.30,37.05 97.21,49.96 90.30,55.82 82.89,59.11 74.69,60.25 66.76,58.06 42.02,44.38 35.64,42.87 29.06,43.32 23.96,46.66 21.20,50.94 21.20,57.51 23.25,64.06 43.90,95.56 48.83,101.09 53.89,104.75 59.84,107.33 65.77,109.27 73.10,111.86 79.73,115.29 85.99,120.15 90.34,123.78 96.88,132.51 99.05,139.22 99.21,146.37 97.30,153.87 92.44,160.14 85.24,165.02 78.04,166.36 70.98,165.07 62.10,160.63 53.84,152.36"/>
        <lane id="38014010_1" index="1" disallow="tram rail_urban rail rail_electric rail_fast ship" speed="16.67" length="2198.22" shape="-50.67,39.64 -60.43,34.42 -69.12,31.88 -79.66,30.99 -91.81,36.59 -96.35,45.67 -94.16,58.25 -87.37,63.99 -78.41,64.20 -70.34,62.03 -64.74,61.63 -57.14,63.30 -50.66,67.66 -47.19,74.95 -47.10,83.37 -48.68,91.47 -48.25,100.10 -45.65,108.46 -39.17,117.12 -29.68,122.29 -18.99,124.00 -8.63,120.86 -1.26,120.94 5.42,123.50 11.99,129.65 12.66,136.23 9.75,144.30 4.24,152.63 2.82,161.19 5.53,169.59 14.13,178.19 25.46,182.92 38.91,182.24 45.80,183.42 50.05,188.66 53.13,194.41 51.49,200.34 46.85,205.25 39.47,205.95 34.12,203.11 30.11,199.98 24.41,197.63 17.38,197.19 11.17,197.92 -4.39,202.97 -15.16,211.40 -24.90,224.81 -27.80,242.67 -19.47,265.34 -3.80,273.67 14.21,278.89 33.99,274.28 43.96,264.68 45.41,249.93 34.48,243.41 22.98,242.77 14.92,246.34 8.04,250.06 -2.93,249.95 -9.37,243.59 -9.43,234.80 -1.95,227.53 10.05,224.61 29.86,225.03 50.71,231.41 66.07,243.76 71.17,265.95 60.58,286.90 36.74,299.77 10.73,301.51 -16.95,297.12 -35.73,285.96 -69.09,231.38 -99.77,165.35 -105.26,158.10 -112.34,153.23 -120.11,148.16 -125.36,142.94 -128.94,133.74 -130.93,122.45 -146.13,65.18 -146.94,56.26 -144.62,48.59 -141.03,37.86 -139.83,27.52 -143.43,11.18 -151.63,1.14 -166.27,-7.13 -183.95,-19.34 -194.29,-36.09 -198.19,-55.26 -196.26,-76.07 -184.25,-90.93 -124.20,-116.59 -115.00,-117.82 -108.07,-112.94 -103.34,-103.30 -105.66,-95.43 -112.06,-87.37 -120.95,-76.57 -123.60,-69.33 -122.61,-62.37 -119.72,-55.15 -70.04,5.51 -60.71,9.03 -52.00,7.56 -44.00,4.00 -30.00,4.00 170.00,4.00 178.12,4.72 186.00,6.00 190.71,8.32 195.32,11.87 198.00,16.00 200.00,22.00 199.28,28.96 196.00,34.00 192.00,38.00 186.00,40.00 180.00,40.00 174.13,37.87 168.40,34.13 163.21,30.92 158.51,28.21 153.13,25.73 148.00,24.00 141.71,23.74 134.16,24.26 126.00,26.00 116.00,30.00 108.34,34.49 95.05,47.60 88.58,53.08 82.00,56.00 74.90,56.99 67.98,55.08 43.19,41.37 35.91,39.64 28.00,40.18 21.64,44.36 18.00,50.00 18.00,58.00 20.33,65.44 41.35,97.51 46.67,103.48 52.30,107.55 58.70,110.33 64.74,112.30 71.83,114.80 78.00,118.00 83.98,122.64 88.00,126.00 94.00,134.00 95.86,139.76 96.00,146.00 94.36,152.44 90.22,157.78 84.00,162.00 78.04,163.11 72.00,162.00 64.00,158.00 56.10,150.10"/>
        <lane id="38014010_2" index="2" disallow="tram rail_urban rail rail_electric rail_fast ship" speed="16.67" length="2198.22" shape="-49.16,36.82 -59.21,31.44 -68.53,28.72 -80.23,27.73 -94.17,34.15 -99.68,45.18 -97.11,59.94 -88.57,67.16 -78.02,67.41 -69.81,65.20 -64.97,64.85 -58.42,66.29 -53.17,69.83 -50.38,75.69 -50.30,83.08 -51.90,91.24 -51.43,100.66 -48.54,109.94 -41.31,119.60 -30.73,125.36 -18.77,127.28 -8.17,124.07 -1.87,124.13 3.69,126.26 8.93,131.17 9.40,135.83 6.87,142.85 1.19,151.43 -0.46,161.43 2.72,171.31 12.31,180.90 24.90,186.15 38.72,185.45 44.07,186.37 47.37,190.44 49.70,194.79 48.62,198.72 45.35,202.18 40.12,202.67 35.87,200.41 31.73,197.19 25.14,194.47 17.29,193.98 10.48,194.78 -5.92,200.10 -17.49,209.16 -27.94,223.55 -31.09,242.99 -22.05,267.59 -5.01,276.65 14.12,282.20 35.57,277.20 47.03,266.17 48.79,248.22 35.44,240.26 22.39,239.53 13.51,243.47 7.25,246.85 -1.60,246.76 -6.18,242.24 -6.22,236.14 -0.35,230.43 10.40,227.82 29.35,228.22 49.18,234.29 63.20,245.56 67.79,265.54 58.18,284.56 35.83,296.62 10.88,298.29 -15.84,294.06 -33.41,283.61 -66.26,229.87 -97.01,163.69 -103.02,155.76 -110.56,150.57 -118.09,145.66 -122.62,141.15 -125.84,132.87 -127.80,121.76 -142.97,64.62 -143.70,56.59 -141.57,49.56 -137.89,38.56 -136.59,27.36 -140.47,9.75 -149.53,-1.35 -164.57,-9.85 -181.58,-21.59 -191.27,-37.29 -194.96,-55.43 -193.16,-74.81 -182.26,-88.30 -123.34,-113.48 -115.82,-114.48 -110.58,-110.80 -106.76,-103.01 -108.55,-96.93 -114.55,-89.38 -123.77,-78.18 -126.88,-69.68 -125.72,-61.54 -122.51,-53.50 -71.97,8.20 -61.03,12.33 -51.07,10.65 -43.32,7.20 -30.00,7.20 169.86,7.20 177.72,7.90 185.01,9.08 189.01,11.05 192.93,14.07 195.09,17.40 196.75,22.36 196.18,27.86 193.50,31.97 190.27,35.20 185.48,36.80 180.56,36.80 175.57,34.99 170.12,31.43 164.85,28.17 159.98,25.36 154.31,22.75 148.59,20.82 141.67,20.54 133.71,21.08 125.07,22.93 114.59,27.12 106.38,31.93 92.89,45.24 86.86,50.34 81.11,52.89 75.11,53.73 69.20,52.10 44.36,38.36 36.18,36.41 26.94,37.04 19.32,42.06 14.80,49.06 14.80,58.49 17.41,66.82 38.80,99.46 44.51,105.87 50.71,110.35 57.56,113.33 63.71,115.33 70.56,117.74 76.27,120.71 81.97,125.13 85.66,128.22 91.12,135.49 92.67,140.30 92.79,145.63 91.42,151.01 88.00,155.42 82.76,158.98 78.04,159.86 73.02,158.93 65.90,155.37 58.36,147.84"/>
    </edge>

    <junction id="4370324319" type="priority" x="56.00" y="150.00" incLanes="38014010_0 38014010_1 38014010_2" intLanes=":4370324319_0_0 :4370324319_0_1 :4370324319_0_2" shape="52.71,153.49 59.49,146.71 59.36,146.57 52.45,153.23">
        <request index="0" response="000" foes="000" cont="0"/>
        <request index="1" response="000" foes="000" cont="0"/>
        <request index="2" response="000" foes="000" cont="0"/>
    </junction>
    <junction id="446557694" type="priority" x="-50.00" y="40.00" incLanes="25304430_0 25304430_1 25304430_2" intLanes=":446557694_0_0 :446557694_0_1 :446557694_0_2" shape="-52.93,43.88 -46.02,37.21 -46.80,36.42 -47.11,36.17 -47.43,35.95 -47.84,35.71 -48.40,35.41">
        <request index="0" response="000" foes="000" cont="0"/>
        <request index="1" response="000" foes="000" cont="0"/>
        <request index="2" response="000" foes="000" cont="0"/>
    </junction>

    <connection from="25304430" to="38014010" fromLane="0" toLane="0" via=":446557694_0_0" dir="s" state="M"/>
    <connection from="25304430" to="38014010" fromLane="1" toLane="1" via=":446557694_0_1" dir="s" state="M"/>
    <connection from="25304430" to="38014010" fromLane="2" toLane="2" via=":446557694_0_2" dir="s" state="M"/>
    <connection from="38014010" to="25304430" fromLane="0" toLane="0" via=":4370324319_0_0" dir="s" state="M"/>
    <connection from="38014010" to="25304430" fromLane="1" toLane="1" via=":4370324319_0_1" dir="s" state="M"/>
    <connection from="38014010" to="25304430" fromLane="2" toLane="2" via=":4370324319_0_2" dir="s" state="M"/>

    <connection from=":4370324319_0" to="25304430" fromLane="0" toLane="0" dir="s" state="M"/>
    <connection from=":4370324319_0" to="25304430" fromLane="1" toLane="1" dir="s" state="M"/>
    <connection from=":4370324319_0" to="25304430" fromLane="2" toLane="2" dir="s" state="M"/>
    <connection from=":446557694_0" to="38014010" fromLane="0" toLane="0" dir="s" state="M"/>
    <connection from=":446557694_0" to="38014010" fromLane="1" toLane="1" dir="s" state="M"/>
    <connection from=":446557694_0" to="38014010" fromLane="2" toLane="2" dir="s" state="M"/>

</net>
