<?xml version="1.0" encoding="UTF-8"?>

<!-- generated on Tue 03 Dec 2019 16:22:46 GMT by Eclipse SUMO netedit Version 1.3.1
<configuration xmlns:xsi="http://www.w3.org/2001/XMLSchema-instance" xsi:noNamespaceSchemaLocation="http://sumo.dlr.de/xsd/netconvertConfiguration.xsd">

    <input>
        <sumo-net-file value="/home/benedikt/dev/DriveML/tracks/2lane_new_c/map.net.xml"/>
    </input>

    <output>
        <output-file value="/home/benedikt/dev/DriveML/tracks/2lane_new_c/map.net.xml"/>
    </output>

    <processing>
        <geometry.max-grade.fix value="false"/>
        <offset.disable-normalization value="true"/>
        <opposites.guess.fix-lengths value="true"/>
        <lefthand value="false"/>
    </processing>

    <junctions>
        <no-turnarounds value="true"/>
        <junctions.corner-detail value="5"/>
        <junctions.limit-turn-speed value="5.5"/>
        <rectangular-lane-cut value="false"/>
    </junctions>

    <pedestrian>
        <walkingareas value="false"/>
    </pedestrian>

</configuration>
-->

<net version="1.3" junctionCornerDetail="5" limitTurnSpeed="5.50" xmlns:xsi="http://www.w3.org/2001/XMLSchema-instance" xsi:noNamespaceSchemaLocation="http://sumo.dlr.de/xsd/net_file.xsd">

    <location netOffset="-630882.85,-4856133.12" convBoundary="-198.19,-117.82,200.00,301.51" origBoundary="-79.371708,43.846679,-79.369237,43.847436" projParameter="+proj=utm +zone=17 +ellps=WGS84 +datum=WGS84 +units=m +no_defs"/>

    <type id="highway.bridleway" priority="1" numLanes="1" speed="2.78" allow="pedestrian" oneway="1" width="2.00"/>
    <type id="highway.bus_guideway" priority="1" numLanes="1" speed="27.78" allow="bus" oneway="1"/>
    <type id="highway.cycleway" priority="1" numLanes="1" speed="8.33" allow="bicycle" oneway="0" width="1.00"/>
    <type id="highway.footway" priority="1" numLanes="1" speed="2.78" allow="pedestrian" oneway="1" width="2.00"/>
    <type id="highway.ford" priority="1" numLanes="1" speed="2.78" allow="army" oneway="0"/>
    <type id="highway.living_street" priority="2" numLanes="1" speed="2.78" disallow="tram rail_urban rail rail_electric ship" oneway="0"/>
    <type id="highway.motorway" priority="14" numLanes="2" speed="39.44" allow="private emergency authority army vip passenger hov taxi bus coach delivery truck trailer motorcycle evehicle custom1 custom2" oneway="1"/>
    <type id="highway.motorway_link" priority="9" numLanes="1" speed="22.22" allow="private emergency authority army vip passenger hov taxi bus coach delivery truck trailer motorcycle evehicle custom1 custom2" oneway="1"/>
    <type id="highway.path" priority="1" numLanes="1" speed="2.78" allow="pedestrian bicycle" oneway="1" width="2.00"/>
    <type id="highway.pedestrian" priority="1" numLanes="1" speed="2.78" allow="pedestrian" oneway="1" width="2.00"/>
    <type id="highway.primary" priority="12" numLanes="2" speed="27.78" disallow="tram rail_urban rail rail_electric ship" oneway="0"/>
    <type id="highway.primary_link" priority="7" numLanes="1" speed="22.22" disallow="tram rail_urban rail rail_electric ship" oneway="0"/>
    <type id="highway.raceway" priority="15" numLanes="2" speed="83.33" allow="vip" oneway="0"/>
    <type id="highway.residential" priority="3" numLanes="1" speed="13.89" disallow="tram rail_urban rail rail_electric ship" oneway="0"/>
    <type id="highway.secondary" priority="11" numLanes="2" speed="27.78" disallow="tram rail_urban rail rail_electric ship" oneway="0"/>
    <type id="highway.secondary_link" priority="6" numLanes="1" speed="22.22" disallow="tram rail_urban rail rail_electric ship" oneway="0"/>
    <type id="highway.service" priority="1" numLanes="1" speed="5.56" allow="pedestrian delivery bicycle" oneway="0"/>
    <type id="highway.stairs" priority="1" numLanes="1" speed="1.39" allow="pedestrian" oneway="1" width="2.00"/>
    <type id="highway.step" priority="1" numLanes="1" speed="1.39" allow="pedestrian" oneway="1" width="2.00"/>
    <type id="highway.steps" priority="1" numLanes="1" speed="1.39" allow="pedestrian" oneway="1" width="2.00"/>
    <type id="highway.tertiary" priority="10" numLanes="1" speed="22.22" disallow="tram rail_urban rail rail_electric ship" oneway="0"/>
    <type id="highway.tertiary_link" priority="5" numLanes="1" speed="22.22" disallow="tram rail_urban rail rail_electric ship" oneway="0"/>
    <type id="highway.track" priority="1" numLanes="1" speed="5.56" disallow="tram rail_urban rail rail_electric ship" oneway="0"/>
    <type id="highway.trunk" priority="13" numLanes="2" speed="27.78" disallow="pedestrian bicycle tram rail_urban rail rail_electric ship" oneway="0"/>
    <type id="highway.trunk_link" priority="8" numLanes="1" speed="22.22" disallow="pedestrian bicycle tram rail_urban rail rail_electric ship" oneway="0"/>
    <type id="highway.unclassified" priority="4" numLanes="1" speed="13.89" disallow="tram rail_urban rail rail_electric ship" oneway="0"/>
    <type id="highway.unsurfaced" priority="1" numLanes="1" speed="8.33" disallow="tram rail_urban rail rail_electric ship" oneway="0"/>
    <type id="railway.light_rail" priority="19" numLanes="1" speed="27.78" allow="rail_urban" oneway="1"/>
    <type id="railway.preserved" priority="16" numLanes="1" speed="27.78" allow="rail" oneway="1"/>
    <type id="railway.rail" priority="20" numLanes="1" speed="83.33" allow="rail rail_electric" oneway="1"/>
    <type id="railway.subway" priority="18" numLanes="1" speed="27.78" allow="rail_urban" oneway="1"/>
    <type id="railway.tram" priority="17" numLanes="1" speed="13.89" allow="tram" oneway="1"/>

    <edge id=":4370324319_0" function="internal">
        <lane id=":4370324319_0_0" index="0" disallow="tram rail_urban rail rail_electric rail_fast ship" speed="16.67" length="0.28" shape="54.97,151.23 54.75,151.01"/>
        <lane id=":4370324319_0_1" index="1" disallow="tram rail_urban rail rail_electric rail_fast ship" speed="16.67" length="0.28" shape="57.23,148.97 57.05,148.79"/>
    </edge>
    <edge id=":446557694_0" function="internal">
        <lane id=":446557694_0_0" index="0" disallow="tram rail_urban rail rail_electric rail_fast ship" speed="16.67" length="1.00" shape="-50.80,41.47 -50.91,41.37 -50.98,41.30 -51.07,41.24 -51.20,41.17"/>
        <lane id=":446557694_0_1" index="1" disallow="tram rail_urban rail rail_electric rail_fast ship" speed="12.93" length="1.00" shape="-48.50,39.25 -48.81,38.93 -49.04,38.73 -49.30,38.57 -49.69,38.35"/>
    </edge>

    <edge id="25304430" from="4370324319" to="446557694" priority="11" type="highway.secondary" spreadType="center">
        <lane id="25304430_0" index="0" disallow="tram rail_urban rail rail_electric rail_fast ship" speed="16.67" length="152.12" shape="54.75,151.01 -50.80,41.47"/>
        <lane id="25304430_1" index="1" disallow="tram rail_urban rail rail_electric rail_fast ship" speed="16.67" length="152.12" shape="57.05,148.79 -48.50,39.25"/>
    </edge>
    <edge id="38014010" from="446557694" to="4370324319" priority="11" type="highway.secondary" spreadType="center" shape="-50.00,40.00 -60.43,34.42 -69.12,31.88 -79.66,30.99 -91.81,36.59 -96.35,45.67 -94.16,58.25 -87.37,63.99 -78.41,64.20 -70.34,62.03 -64.74,61.63 -57.14,63.30 -50.66,67.66 -47.19,74.95 -47.10,83.37 -48.68,91.47 -48.25,100.10 -45.65,108.46 -39.17,117.12 -29.68,122.29 -18.99,124.00 -8.63,120.86 -1.26,120.94 5.42,123.50 11.99,129.65 12.66,136.23 9.75,144.30 4.24,152.63 2.82,161.19 5.53,169.59 14.13,178.19 25.46,182.92 38.91,182.24 45.80,183.42 50.05,188.66 53.13,194.41 51.49,200.34 46.85,205.25 39.47,205.95 34.12,203.11 30.11,199.98 24.41,197.63 17.38,197.19 11.17,197.92 -4.39,202.97 -15.16,211.40 -24.90,224.81 -27.80,242.67 -19.47,265.34 -3.80,273.67 14.21,278.89 33.99,274.28 43.96,264.68 45.41,249.93 34.48,243.41 22.98,242.77 14.92,246.34 8.04,250.06 -2.93,249.95 -9.37,243.59 -9.43,234.80 -1.95,227.53 10.05,224.61 29.86,225.03 50.71,231.41 66.07,243.76 71.17,265.95 60.58,286.90 36.74,299.77 10.73,301.51 -16.95,297.12 -35.73,285.96 -69.09,231.38 -99.77,165.35 -105.26,158.10 -112.34,153.23 -120.11,148.16 -125.36,142.94 -128.94,133.74 -130.93,122.45 -146.13,65.18 -146.94,56.26 -144.62,48.59 -141.03,37.86 -139.83,27.52 -143.43,11.18 -151.63,1.14 -166.27,-7.13 -183.95,-19.34 -194.29,-36.09 -198.19,-55.26 -196.26,-76.07 -184.25,-90.93 -124.20,-116.59 -115.00,-117.82 -108.07,-112.94 -103.34,-103.30 -105.66,-95.43 -112.06,-87.37 -120.95,-76.57 -123.60,-69.33 -122.61,-62.37 -119.72,-55.15 -70.04,5.51 -60.71,9.03 -52.00,7.56 -44.00,4.00 -30.00,4.00 170.00,4.00 178.12,4.72 186.00,6.00 190.71,8.32 195.32,11.87 198.00,16.00 200.00,22.00 199.28,28.96 196.00,34.00 192.00,38.00 186.00,40.00 180.00,40.00 174.13,37.87 168.40,34.13 163.21,30.92 158.51,28.21 153.13,25.73 148.00,24.00 141.71,23.74 134.16,24.26 126.00,26.00 116.00,30.00 108.34,34.49 95.05,47.60 88.58,53.08 82.00,56.00 74.90,56.99 67.98,55.08 43.19,41.37 35.91,39.64 28.00,40.18 21.64,44.36 18.00,50.00 18.00,58.00 20.33,65.44 41.35,97.51 46.67,103.48 52.30,107.55 58.70,110.33 64.74,112.30 71.83,114.80 78.00,118.00 83.98,122.64 88.00,126.00 94.00,134.00 95.86,139.76 96.00,146.00 94.36,152.44 90.22,157.78 84.00,162.00 78.04,163.11 72.00,162.00 64.00,158.00 56.00,150.00">
        <lane id="38014010_0" index="0" disallow="tram rail_urban rail rail_electric rail_fast ship" speed="16.67" length="2198.47" shape="-51.20,41.17 -61.04,35.91 -69.41,33.46 -79.37,32.62 -90.63,37.81 -94.68,45.91 -92.68,57.40 -86.77,62.40 -78.60,62.60 -70.61,60.45 -64.62,60.02 -56.50,61.80 -49.40,66.58 -45.59,74.58 -45.50,83.52 -47.07,91.59 -46.66,99.82 -44.20,107.72 -38.10,115.88 -29.16,120.75 -19.10,122.36 -8.86,119.26 -0.96,119.34 6.28,122.12 13.52,128.89 14.29,136.43 11.19,145.02 5.76,153.23 4.46,161.07 6.93,168.73 15.04,176.84 25.74,181.30 39.01,180.63 46.66,181.94 51.39,187.77 54.84,194.22 52.93,201.15 47.60,206.79 39.14,207.59 33.25,204.46 29.30,201.38 24.05,199.21 17.42,198.80 11.51,199.49 -3.63,204.40 -14.00,212.52 -23.38,225.44 -26.15,242.51 -18.18,264.21 -3.20,272.18 14.25,277.24 33.20,272.82 42.43,263.94 43.72,250.78 34.00,244.99 23.28,244.39 15.63,247.78 8.44,251.66 -3.59,251.54 -10.97,244.26 -11.03,234.13 -2.75,226.08 9.87,223.01 30.12,223.44 51.47,229.97 67.51,242.86 72.86,266.16 61.78,288.07 37.19,301.34 10.66,303.12 -17.50,298.65 -36.89,287.13 -70.50,232.14 -101.15,166.18 -106.38,159.27 -113.23,154.56 -121.12,149.41 -126.73,143.84 -130.49,134.17 -132.49,122.79 -147.71,65.46 -148.56,56.09 -146.14,48.10 -142.60,37.51 -141.45,27.60 -144.91,11.90 -152.68,2.39 -167.12,-5.77 -185.14,-18.21 -195.80,-35.49 -199.80,-55.17 -197.81,-76.70 -185.24,-92.25 -124.63,-118.15 -114.59,-119.49 -106.81,-114.01 -101.63,-103.45 -104.21,-94.68 -110.82,-86.36 -119.54,-75.76 -121.96,-69.16 -121.05,-62.79 -118.33,-55.97 -69.07,4.16 -60.55,7.38 -52.47,6.02 -44.34,2.40 -30.00,2.40 170.07,2.40 178.32,3.13 186.49,4.46 191.56,6.96 196.51,10.77 199.45,15.30 201.63,21.82 200.83,29.51 197.25,35.01 192.86,39.40 186.26,41.60 179.72,41.60 173.41,39.31 167.54,35.48 162.39,32.29 157.77,29.63 152.54,27.22 147.71,25.59 141.73,25.34 134.38,25.85 126.47,27.54 116.71,31.44 109.32,35.77 96.13,48.78 89.44,54.45 82.44,57.55 74.79,58.62 67.37,56.57 42.61,42.88 35.78,41.25 28.53,41.75 22.80,45.51 19.60,50.47 19.60,57.76 21.79,64.75 42.62,96.53 47.75,102.29 53.10,106.15 59.27,108.83 65.25,110.78 72.47,113.33 78.87,116.65 84.98,121.39 89.17,124.89 95.44,133.25 97.45,139.49 97.60,146.18 95.83,153.16 91.33,158.96 84.62,163.51 78.04,164.74 71.49,163.53 63.05,159.31 54.97,151.23"/>
        <lane id="38014010_1" index="1" disallow="tram rail_urban rail rail_electric rail_fast ship" speed="16.67" length="2198.47" shape="-49.69,38.35 -59.82,32.93 -68.83,30.30 -79.95,29.36 -92.99,35.37 -98.02,45.43 -95.64,59.10 -87.97,65.58 -78.22,65.80 -70.07,63.61 -64.86,63.24 -57.78,64.80 -51.92,68.74 -48.79,75.32 -48.70,83.22 -50.29,91.35 -49.84,100.38 -47.10,109.20 -40.24,118.36 -30.20,123.83 -18.88,125.64 -8.40,122.46 -1.56,122.54 4.56,124.88 10.46,130.41 11.03,136.03 8.31,143.58 2.72,152.03 1.18,161.31 4.13,170.45 13.22,179.54 25.18,184.54 38.81,183.85 44.94,184.90 48.71,189.55 51.42,194.60 50.05,199.53 46.10,203.71 39.80,204.31 34.99,201.76 30.92,198.58 24.77,196.05 17.34,195.58 10.83,196.35 -5.15,201.54 -16.32,210.28 -26.42,224.18 -29.45,242.83 -20.76,266.47 -4.40,275.16 14.17,280.54 34.78,275.74 45.49,265.42 47.10,249.08 34.96,241.83 22.68,241.15 14.21,244.90 7.64,248.46 -2.27,248.36 -7.77,242.92 -7.83,235.47 -1.15,228.98 10.23,226.21 29.60,226.62 49.95,232.85 64.63,244.66 69.48,265.74 59.38,285.73 36.29,298.20 10.80,299.90 -16.40,295.59 -34.57,284.79 -67.68,230.62 -98.39,164.52 -104.14,156.93 -111.45,151.90 -119.10,146.91 -123.99,142.04 -127.39,133.31 -129.37,122.11 -144.55,64.90 -145.32,56.43 -143.10,49.08 -139.46,38.21 -138.21,27.44 -141.95,10.46 -150.58,-0.11 -165.42,-8.49 -182.76,-20.47 -192.78,-36.69 -196.58,-55.35 -194.71,-75.44 -183.26,-89.61 -123.77,-115.03 -115.41,-116.15 -109.33,-111.87 -105.05,-103.15 -107.11,-96.18 -113.30,-88.38 -122.36,-77.38 -125.24,-69.50 -124.17,-61.95 -121.11,-54.33 -71.01,6.86 -60.87,10.68 -51.53,9.10 -43.66,5.60 -30.00,5.60 169.93,5.60 177.92,6.31 185.51,7.54 189.86,9.68 194.13,12.97 196.55,16.70 198.37,22.18 197.73,28.41 194.75,32.99 191.14,36.60 185.74,38.40 180.28,38.40 174.85,36.43 169.26,32.78 164.03,29.55 159.25,26.79 153.72,24.24 148.29,22.41 141.69,22.14 133.94,22.67 125.53,24.46 115.29,28.56 107.36,33.21 93.97,46.42 87.72,51.71 81.56,54.45 75.01,55.36 68.59,53.59 43.77,39.86 36.04,38.03 27.47,38.61 20.48,43.21 16.40,49.53 16.40,58.24 18.87,66.13 40.08,98.49 45.59,104.67 51.50,108.95 58.13,111.83 64.23,113.82 71.19,116.27 77.13,119.35 82.98,123.89 86.83,127.11 92.56,134.75 94.27,140.03 94.40,145.82 92.89,151.72 89.11,156.60 83.38,160.49 78.04,161.48 72.51,160.47 64.95,156.69 57.23,148.97"/>
    </edge>

    <junction id="4370324319" type="priority" x="56.00" y="150.00" incLanes="38014010_0 38014010_1" intLanes=":4370324319_0_0 :4370324319_0_1" shape="53.84,152.36 58.36,147.84 58.21,147.68 53.60,152.12">
        <request index="0" response="00" foes="00" cont="0"/>
        <request index="1" response="00" foes="00" cont="0"/>
    </junction>
    <junction id="446557694" type="priority" x="-50.00" y="40.00" incLanes="25304430_0 25304430_1" intLanes=":446557694_0_0 :446557694_0_1" shape="-51.95,42.58 -47.35,38.14 -47.87,37.62 -48.07,37.45 -48.29,37.30 -48.56,37.14 -48.94,36.94">
        <request index="0" response="00" foes="00" cont="0"/>
        <request index="1" response="00" foes="00" cont="0"/>
    </junction>

    <connection from="25304430" to="38014010" fromLane="0" toLane="0" via=":446557694_0_0" dir="s" state="M"/>
    <connection from="25304430" to="38014010" fromLane="1" toLane="1" via=":446557694_0_1" dir="s" state="M"/>
    <connection from="38014010" to="25304430" fromLane="0" toLane="0" via=":4370324319_0_0" dir="s" state="M"/>
    <connection from="38014010" to="25304430" fromLane="1" toLane="1" via=":4370324319_0_1" dir="s" state="M"/>

    <connection from=":4370324319_0" to="25304430" fromLane="0" toLane="0" dir="s" state="M"/>
    <connection from=":4370324319_0" to="25304430" fromLane="1" toLane="1" dir="s" state="M"/>
    <connection from=":446557694_0" to="38014010" fromLane="0" toLane="0" dir="s" state="M"/>
    <connection from=":446557694_0" to="38014010" fromLane="1" toLane="1" dir="s" state="M"/>

</net>
