<?xml version="1.0" encoding="UTF-8"?>

<!-- generated on Tue 29 Oct 2019 11:43:11 PM EDT by Eclipse SUMO netedit Version 1.3.1
<configuration xmlns:xsi="http://www.w3.org/2001/XMLSchema-instance" xsi:noNamespaceSchemaLocation="http://sumo.dlr.de/xsd/netconvertConfiguration.xsd">

    <input>
        <sumo-net-file value="/home/david/src/HiWay/competition/dataset_public/2lane_sharp/map.net.xml"/>
    </input>

    <output>
        <output-file value="/home/david/src/HiWay/competition/dataset_public/2lane_sharp/map.net.xml"/>
    </output>

    <processing>
        <geometry.max-grade.fix value="false"/>
        <offset.disable-normalization value="true"/>
        <opposites.guess.fix-lengths value="true"/>
        <lefthand value="false"/>
    </processing>

    <junctions>
        <no-turnarounds value="true"/>
        <junctions.corner-detail value="5"/>
        <junctions.limit-turn-speed value="5.5"/>
        <rectangular-lane-cut value="false"/>
    </junctions>

    <pedestrian>
        <walkingareas value="false"/>
    </pedestrian>

</configuration>
-->

<net version="1.3" junctionCornerDetail="5" limitTurnSpeed="5.50" xmlns:xsi="http://www.w3.org/2001/XMLSchema-instance" xsi:noNamespaceSchemaLocation="http://sumo.dlr.de/xsd/net_file.xsd">

    <location netOffset="-630882.85,-4856133.12" convBoundary="53.47,2.98,199.62,121.29" origBoundary="-79.371708,43.846679,-79.369237,43.847436" projParameter="+proj=utm +zone=17 +ellps=WGS84 +datum=WGS84 +units=m +no_defs"/>

    <type id="highway.bridleway" priority="1" numLanes="1" speed="2.78" allow="pedestrian" oneway="1" width="2.00"/>
    <type id="highway.bus_guideway" priority="1" numLanes="1" speed="27.78" allow="bus" oneway="1"/>
    <type id="highway.cycleway" priority="1" numLanes="1" speed="8.33" allow="bicycle" oneway="0" width="1.00"/>
    <type id="highway.footway" priority="1" numLanes="1" speed="2.78" allow="pedestrian" oneway="1" width="2.00"/>
    <type id="highway.ford" priority="1" numLanes="1" speed="2.78" allow="army" oneway="0"/>
    <type id="highway.living_street" priority="2" numLanes="1" speed="2.78" disallow="tram rail_urban rail rail_electric ship" oneway="0"/>
    <type id="highway.motorway" priority="14" numLanes="2" speed="39.44" allow="private emergency authority army vip passenger hov taxi bus coach delivery truck trailer motorcycle evehicle custom1 custom2" oneway="1"/>
    <type id="highway.motorway_link" priority="9" numLanes="1" speed="22.22" allow="private emergency authority army vip passenger hov taxi bus coach delivery truck trailer motorcycle evehicle custom1 custom2" oneway="1"/>
    <type id="highway.path" priority="1" numLanes="1" speed="2.78" allow="pedestrian bicycle" oneway="1" width="2.00"/>
    <type id="highway.pedestrian" priority="1" numLanes="1" speed="2.78" allow="pedestrian" oneway="1" width="2.00"/>
    <type id="highway.primary" priority="12" numLanes="2" speed="27.78" disallow="tram rail_urban rail rail_electric ship" oneway="0"/>
    <type id="highway.primary_link" priority="7" numLanes="1" speed="22.22" disallow="tram rail_urban rail rail_electric ship" oneway="0"/>
    <type id="highway.raceway" priority="15" numLanes="2" speed="83.33" allow="vip" oneway="0"/>
    <type id="highway.residential" priority="3" numLanes="1" speed="13.89" disallow="tram rail_urban rail rail_electric ship" oneway="0"/>
    <type id="highway.secondary" priority="11" numLanes="2" speed="27.78" disallow="tram rail_urban rail rail_electric ship" oneway="0"/>
    <type id="highway.secondary_link" priority="6" numLanes="1" speed="22.22" disallow="tram rail_urban rail rail_electric ship" oneway="0"/>
    <type id="highway.service" priority="1" numLanes="1" speed="5.56" allow="pedestrian delivery bicycle" oneway="0"/>
    <type id="highway.stairs" priority="1" numLanes="1" speed="1.39" allow="pedestrian" oneway="1" width="2.00"/>
    <type id="highway.step" priority="1" numLanes="1" speed="1.39" allow="pedestrian" oneway="1" width="2.00"/>
    <type id="highway.steps" priority="1" numLanes="1" speed="1.39" allow="pedestrian" oneway="1" width="2.00"/>
    <type id="highway.tertiary" priority="10" numLanes="1" speed="22.22" disallow="tram rail_urban rail rail_electric ship" oneway="0"/>
    <type id="highway.tertiary_link" priority="5" numLanes="1" speed="22.22" disallow="tram rail_urban rail rail_electric ship" oneway="0"/>
    <type id="highway.track" priority="1" numLanes="1" speed="5.56" disallow="tram rail_urban rail rail_electric ship" oneway="0"/>
    <type id="highway.trunk" priority="13" numLanes="2" speed="27.78" disallow="pedestrian bicycle tram rail_urban rail rail_electric ship" oneway="0"/>
    <type id="highway.trunk_link" priority="8" numLanes="1" speed="22.22" disallow="pedestrian bicycle tram rail_urban rail rail_electric ship" oneway="0"/>
    <type id="highway.unclassified" priority="4" numLanes="1" speed="13.89" disallow="tram rail_urban rail rail_electric ship" oneway="0"/>
    <type id="highway.unsurfaced" priority="1" numLanes="1" speed="8.33" disallow="tram rail_urban rail rail_electric ship" oneway="0"/>
    <type id="railway.light_rail" priority="19" numLanes="1" speed="27.78" allow="rail_urban" oneway="1"/>
    <type id="railway.preserved" priority="16" numLanes="1" speed="27.78" allow="rail" oneway="1"/>
    <type id="railway.rail" priority="20" numLanes="1" speed="83.33" allow="rail rail_electric" oneway="1"/>
    <type id="railway.subway" priority="18" numLanes="1" speed="27.78" allow="rail_urban" oneway="1"/>
    <type id="railway.tram" priority="17" numLanes="1" speed="13.89" allow="tram" oneway="1"/>

    <edge id=":4370324319_0" function="internal">
        <lane id=":4370324319_0_0" index="0" disallow="tram rail_urban rail rail_electric rail_fast ship" speed="16.67" length="0.10" shape="80.59,83.68 80.52,83.71"/>
        <lane id=":4370324319_0_1" index="1" disallow="tram rail_urban rail rail_electric rail_fast ship" speed="16.67" length="0.10" shape="81.89,86.60 81.96,86.57"/>
    </edge>
    <edge id=":446557694_0" function="internal">
        <lane id=":446557694_0_0" index="0" disallow="tram rail_urban rail rail_electric rail_fast ship" speed="16.67" length="0.45" shape="114.11,66.81 114.17,66.78 114.21,66.76 114.25,66.73 114.30,66.70"/>
        <lane id=":446557694_0_1" index="1" disallow="tram rail_urban rail rail_electric rail_fast ship" speed="16.67" length="0.45" shape="115.55,69.67 115.73,69.58 115.85,69.51 115.96,69.44 116.13,69.33"/>
    </edge>

    <edge id="25304430" from="4370324319" to="446557694" priority="11" type="highway.secondary" spreadType="center">
        <lane id="25304430_0" index="0" disallow="tram rail_urban rail rail_electric rail_fast ship" speed="16.67" length="37.60" shape="80.52,83.71 114.11,66.81"/>
        <lane id="25304430_1" index="1" disallow="tram rail_urban rail rail_electric rail_fast ship" speed="16.67" length="37.60" shape="81.96,86.57 115.55,69.67"/>
    </edge>
    <edge id="38014010" from="446557694" to="4370324319" priority="11" type="highway.secondary" spreadType="center" shape="115.03,68.14 121.31,63.79 126.00,58.00 128.21,53.03 128.55,46.96 126.66,40.94 124.00,36.00 120.55,31.72 115.78,28.34 110.48,25.93 105.31,22.48 101.92,18.74 100.00,14.00 99.80,8.97 101.38,5.03 105.02,2.98 110.00,3.79 115.17,6.69 119.11,10.70 122.07,14.90 126.18,16.92 130.00,16.41 133.20,13.70 134.90,9.93 138.41,6.48 143.73,4.34 149.54,4.32 154.00,6.00 193.90,33.50 197.40,37.15 199.22,41.01 199.62,45.39 198.07,49.43 194.56,52.33 184.00,58.00 92.00,102.00 88.00,106.00 85.77,109.39 84.11,113.29 80.00,118.00 75.37,120.27 70.56,121.29 65.63,120.87 61.62,119.06 58.09,116.01 55.31,111.92 53.55,107.11 53.47,101.62 55.39,96.20 58.90,91.71 63.26,88.65 67.63,87.68 71.73,87.77 75.85,87.52 81.24,85.14">
        <lane id="38014010_0" index="0" disallow="tram rail_urban rail rail_electric rail_fast ship" speed="16.67" length="425.28" shape="114.30,66.70 120.21,62.61 124.62,57.16 126.63,52.65 126.94,47.16 125.18,41.56 122.66,36.89 119.44,32.90 114.98,29.73 109.70,27.33 104.26,23.70 100.54,19.60 98.41,14.34 98.19,8.69 100.10,3.91 104.72,1.31 110.54,2.26 116.15,5.41 120.34,9.67 123.14,13.64 126.45,15.27 129.32,14.89 131.89,12.71 133.56,9.00 137.52,5.11 143.42,2.74 149.83,2.72 154.75,4.57 194.94,32.28 198.74,36.23 200.79,40.58 201.25,45.62 199.41,50.40 195.46,53.66 184.72,59.43 92.94,103.33 89.25,107.02 87.19,110.15 85.48,114.15 80.99,119.29 75.90,121.79 70.66,122.90 65.22,122.44 60.75,120.42 56.88,117.08 53.88,112.66 51.95,107.40 51.87,101.36 53.97,95.42 57.79,90.54 62.60,87.16 67.47,86.08 71.70,86.17 75.47,85.94 80.59,83.68"/>
        <lane id="38014010_1" index="1" disallow="tram rail_urban rail rail_electric rail_fast ship" speed="16.67" length="425.28" shape="116.13,69.33 122.41,64.97 127.38,58.84 129.79,53.41 130.16,46.76 128.14,40.32 125.34,35.11 121.66,30.54 116.58,26.95 111.26,24.53 106.36,21.26 103.30,17.88 101.59,13.66 101.41,9.25 102.66,6.15 105.32,4.65 109.46,5.32 114.19,7.97 117.88,11.73 121.00,16.16 125.91,18.57 130.68,17.93 134.51,14.69 136.24,10.86 139.30,7.85 144.04,5.94 149.25,5.92 153.25,7.43 192.86,34.72 196.06,38.07 197.65,41.44 197.99,45.16 196.73,48.46 193.66,51.00 183.28,56.57 91.06,100.67 86.75,104.98 84.35,108.63 82.74,112.43 79.01,116.71 74.84,118.75 70.46,119.68 66.04,119.30 62.49,117.70 59.30,114.94 56.74,111.18 55.15,106.82 55.07,101.88 56.81,96.98 60.01,92.88 63.92,90.14 67.79,89.28 71.76,89.37 76.23,89.10 81.89,86.60"/>
    </edge>

    <junction id="4370324319" type="priority" x="81.24" y="85.14" incLanes="38014010_0 38014010_1" intLanes=":4370324319_0_0 :4370324319_0_1" shape="82.75,87.96 79.87,82.25 82.46,88.10">
        <request index="0" response="00" foes="00" cont="0"/>
        <request index="1" response="00" foes="00" cont="0"/>
    </junction>
    <junction id="446557694" type="priority" x="115.03" y="68.14" incLanes="25304430_0 25304430_1" intLanes=":446557694_0_0 :446557694_0_1" shape="117.04,70.64 113.39,65.38 116.27,71.10 116.56,70.95 116.66,70.89 116.76,70.83 116.88,70.75">
        <request index="0" response="00" foes="00" cont="0"/>
        <request index="1" response="00" foes="00" cont="0"/>
    </junction>

    <connection from="25304430" to="38014010" fromLane="0" toLane="0" via=":446557694_0_0" dir="s" state="M"/>
    <connection from="25304430" to="38014010" fromLane="1" toLane="1" via=":446557694_0_1" dir="s" state="M"/>
    <connection from="38014010" to="25304430" fromLane="0" toLane="0" via=":4370324319_0_0" dir="s" state="M"/>
    <connection from="38014010" to="25304430" fromLane="1" toLane="1" via=":4370324319_0_1" dir="s" state="M"/>

    <connection from=":4370324319_0" to="25304430" fromLane="0" toLane="0" dir="s" state="M"/>
    <connection from=":4370324319_0" to="25304430" fromLane="1" toLane="1" dir="s" state="M"/>
    <connection from=":446557694_0" to="38014010" fromLane="0" toLane="0" dir="s" state="M"/>
    <connection from=":446557694_0" to="38014010" fromLane="1" toLane="1" dir="s" state="M"/>

</net>
