<?xml version="1.0" encoding="UTF-8"?>

<!-- generated on Tue 26 Nov 2019 16:22:46 GMT by Eclipse SUMO netedit Version 1.3.1
<configuration xmlns:xsi="http://www.w3.org/2001/XMLSchema-instance" xsi:noNamespaceSchemaLocation="http://sumo.dlr.de/xsd/netconvertConfiguration.xsd">

    <input>
        <sumo-net-file value="/home/benedikt/dev/drive/dataset_public/2lane_new/map.net.xml"/>
    </input>

    <output>
        <output-file value="/home/benedikt/dev/drive/dataset_public/2lane_new/map.net.xml"/>
    </output>

    <processing>
        <geometry.max-grade.fix value="false"/>
        <offset.disable-normalization value="true"/>
        <opposites.guess.fix-lengths value="true"/>
        <lefthand value="false"/>
    </processing>

    <junctions>
        <no-turnarounds value="true"/>
        <junctions.corner-detail value="5"/>
        <junctions.limit-turn-speed value="5.5"/>
        <rectangular-lane-cut value="false"/>
    </junctions>

    <pedestrian>
        <walkingareas value="false"/>
    </pedestrian>

</configuration>
-->

<net version="1.3" junctionCornerDetail="5" limitTurnSpeed="5.50" xmlns:xsi="http://www.w3.org/2001/XMLSchema-instance" xsi:noNamespaceSchemaLocation="http://sumo.dlr.de/xsd/net_file.xsd">

    <location netOffset="-630882.85,-4856133.12" convBoundary="-125.29,-100.37,254.78,121.29" origBoundary="-79.371708,43.846679,-79.369237,43.847436" projParameter="+proj=utm +zone=17 +ellps=WGS84 +datum=WGS84 +units=m +no_defs"/>

    <type id="highway.bridleway" priority="1" numLanes="1" speed="2.78" allow="pedestrian" oneway="1" width="2.00"/>
    <type id="highway.bus_guideway" priority="1" numLanes="1" speed="27.78" allow="bus" oneway="1"/>
    <type id="highway.cycleway" priority="1" numLanes="1" speed="8.33" allow="bicycle" oneway="0" width="1.00"/>
    <type id="highway.footway" priority="1" numLanes="1" speed="2.78" allow="pedestrian" oneway="1" width="2.00"/>
    <type id="highway.ford" priority="1" numLanes="1" speed="2.78" allow="army" oneway="0"/>
    <type id="highway.living_street" priority="2" numLanes="1" speed="2.78" disallow="tram rail_urban rail rail_electric ship" oneway="0"/>
    <type id="highway.motorway" priority="14" numLanes="2" speed="39.44" allow="private emergency authority army vip passenger hov taxi bus coach delivery truck trailer motorcycle evehicle custom1 custom2" oneway="1"/>
    <type id="highway.motorway_link" priority="9" numLanes="1" speed="22.22" allow="private emergency authority army vip passenger hov taxi bus coach delivery truck trailer motorcycle evehicle custom1 custom2" oneway="1"/>
    <type id="highway.path" priority="1" numLanes="1" speed="2.78" allow="pedestrian bicycle" oneway="1" width="2.00"/>
    <type id="highway.pedestrian" priority="1" numLanes="1" speed="2.78" allow="pedestrian" oneway="1" width="2.00"/>
    <type id="highway.primary" priority="12" numLanes="2" speed="27.78" disallow="tram rail_urban rail rail_electric ship" oneway="0"/>
    <type id="highway.primary_link" priority="7" numLanes="1" speed="22.22" disallow="tram rail_urban rail rail_electric ship" oneway="0"/>
    <type id="highway.raceway" priority="15" numLanes="2" speed="83.33" allow="vip" oneway="0"/>
    <type id="highway.residential" priority="3" numLanes="1" speed="13.89" disallow="tram rail_urban rail rail_electric ship" oneway="0"/>
    <type id="highway.secondary" priority="11" numLanes="2" speed="27.78" disallow="tram rail_urban rail rail_electric ship" oneway="0"/>
    <type id="highway.secondary_link" priority="6" numLanes="1" speed="22.22" disallow="tram rail_urban rail rail_electric ship" oneway="0"/>
    <type id="highway.service" priority="1" numLanes="1" speed="5.56" allow="pedestrian delivery bicycle" oneway="0"/>
    <type id="highway.stairs" priority="1" numLanes="1" speed="1.39" allow="pedestrian" oneway="1" width="2.00"/>
    <type id="highway.step" priority="1" numLanes="1" speed="1.39" allow="pedestrian" oneway="1" width="2.00"/>
    <type id="highway.steps" priority="1" numLanes="1" speed="1.39" allow="pedestrian" oneway="1" width="2.00"/>
    <type id="highway.tertiary" priority="10" numLanes="1" speed="22.22" disallow="tram rail_urban rail rail_electric ship" oneway="0"/>
    <type id="highway.tertiary_link" priority="5" numLanes="1" speed="22.22" disallow="tram rail_urban rail rail_electric ship" oneway="0"/>
    <type id="highway.track" priority="1" numLanes="1" speed="5.56" disallow="tram rail_urban rail rail_electric ship" oneway="0"/>
    <type id="highway.trunk" priority="13" numLanes="2" speed="27.78" disallow="pedestrian bicycle tram rail_urban rail rail_electric ship" oneway="0"/>
    <type id="highway.trunk_link" priority="8" numLanes="1" speed="22.22" disallow="pedestrian bicycle tram rail_urban rail rail_electric ship" oneway="0"/>
    <type id="highway.unclassified" priority="4" numLanes="1" speed="13.89" disallow="tram rail_urban rail rail_electric ship" oneway="0"/>
    <type id="highway.unsurfaced" priority="1" numLanes="1" speed="8.33" disallow="tram rail_urban rail rail_electric ship" oneway="0"/>
    <type id="railway.light_rail" priority="19" numLanes="1" speed="27.78" allow="rail_urban" oneway="1"/>
    <type id="railway.preserved" priority="16" numLanes="1" speed="27.78" allow="rail" oneway="1"/>
    <type id="railway.rail" priority="20" numLanes="1" speed="83.33" allow="rail rail_electric" oneway="1"/>
    <type id="railway.subway" priority="18" numLanes="1" speed="27.78" allow="rail_urban" oneway="1"/>
    <type id="railway.tram" priority="17" numLanes="1" speed="13.89" allow="tram" oneway="1"/>

    <edge id=":4370324319_0" function="internal">
        <lane id=":4370324319_0_0" index="0" disallow="tram rail_urban rail rail_electric rail_fast ship" speed="16.67" length="0.10" shape="80.59,83.68 80.52,83.71"/>
        <lane id=":4370324319_0_1" index="1" disallow="tram rail_urban rail rail_electric rail_fast ship" speed="16.67" length="0.10" shape="81.89,86.60 81.96,86.57"/>
    </edge>
    <edge id=":446557694_0" function="internal">
        <lane id=":446557694_0_0" index="0" disallow="tram rail_urban rail rail_electric rail_fast ship" speed="16.67" length="0.45" shape="114.11,66.81 114.17,66.78 114.21,66.76 114.25,66.73 114.30,66.70"/>
        <lane id=":446557694_0_1" index="1" disallow="tram rail_urban rail rail_electric rail_fast ship" speed="16.67" length="0.45" shape="115.55,69.67 115.73,69.58 115.85,69.51 115.96,69.44 116.13,69.33"/>
    </edge>

    <edge id="25304430" from="4370324319" to="446557694" priority="11" type="highway.secondary" spreadType="center">
        <lane id="25304430_0" index="0" disallow="tram rail_urban rail rail_electric rail_fast ship" speed="16.67" length="37.60" shape="80.52,83.71 114.11,66.81"/>
        <lane id="25304430_1" index="1" disallow="tram rail_urban rail rail_electric rail_fast ship" speed="16.67" length="37.60" shape="81.96,86.57 115.55,69.67"/>
    </edge>
    <edge id="38014010" from="446557694" to="4370324319" priority="11" type="highway.secondary" spreadType="center" shape="115.03,68.14 121.31,63.79 126.00,58.00 128.21,53.03 128.55,46.96 126.66,40.94 124.00,36.00 120.55,31.72 115.78,28.34 110.48,25.93 105.31,22.48 101.92,18.74 100.00,14.00 99.80,8.97 101.38,5.03 105.02,2.98 110.00,3.79 115.17,6.69 119.11,10.70 122.07,14.90 126.18,16.92 130.00,16.41 133.20,13.70 134.90,9.93 138.41,6.48 143.73,4.34 149.54,4.32 154.00,6.00 193.90,33.50 199.94,35.20 206.21,33.99 210.97,30.72 211.94,26.54 210.92,22.58 206.04,20.02 200.15,20.45 196.03,20.66 192.55,19.73 187.15,16.89 182.42,12.05 179.34,5.87 173.22,-3.62 160.93,-16.13 152.31,-19.50 145.49,-18.16 137.98,-15.43 130.02,-12.84 122.55,-12.45 114.90,-13.57 106.79,-13.17 101.22,-13.89 95.10,-15.16 89.35,-17.66 85.65,-19.92 80.75,-21.12 75.07,-20.73 70.42,-18.78 66.85,-13.67 66.41,-8.61 68.02,-2.28 70.10,2.87 75.02,7.69 79.40,13.61 81.85,20.98 81.89,27.83 80.25,33.54 76.83,38.77 71.83,43.15 64.58,45.83 55.44,45.68 47.66,41.43 43.46,34.97 42.75,27.91 46.09,22.43 53.29,17.48 57.41,13.54 59.42,7.72 58.87,0.45 55.99,-7.11 50.81,-12.57 45.00,-15.93 37.20,-18.22 23.23,-17.59 3.18,-16.70 -40.94,-20.79 -49.31,-21.44 -59.61,-19.91 -69.67,-14.89 -75.71,-7.11 -77.50,1.78 -76.86,15.05 -72.17,25.64 -61.85,31.81 -51.01,32.99 -40.11,32.23 -31.85,25.90 -29.54,18.50 -26.35,12.23 -21.53,8.76 -14.71,6.60 -6.39,7.59 -0.06,11.38 3.14,20.67 2.77,34.41 -0.69,46.72 -13.85,59.42 -51.26,66.87 -81.99,63.64 -109.86,56.15 -117.12,52.95 -123.09,48.12 -125.29,42.35 -124.61,35.36 -116.33,-33.83 -114.21,-39.55 -108.99,-42.79 -101.48,-43.11 -96.66,-41.66 -91.84,-40.22 -87.35,-40.00 -24.79,-53.94 -19.35,-53.74 -14.89,-51.29 -10.18,-47.30 -5.37,-45.05 -1.49,-44.95 3.06,-46.12 6.29,-49.80 8.24,-53.36 10.76,-55.64 13.85,-55.91 17.43,-55.06 20.38,-53.70 23.00,-49.31 25.66,-46.51 28.36,-45.06 32.41,-45.61 36.08,-48.05 38.89,-52.54 43.21,-55.70 48.03,-55.93 52.58,-54.47 57.31,-50.24 63.55,-48.30 70.52,-51.25 76.71,-51.69 82.69,-48.92 88.74,-49.98 93.77,-52.27 98.26,-55.80 102.76,-58.03 109.03,-57.26 115.05,-54.63 119.38,-55.01 124.47,-57.14 130.12,-58.20 188.53,-97.04 192.04,-97.70 196.42,-96.49 200.05,-93.35 204.50,-92.19 207.88,-92.81 210.77,-94.80 213.27,-98.16 216.31,-100.37 221.10,-100.28 225.95,-96.75 254.08,-17.47 254.78,-12.56 253.90,-7.57 250.77,-3.62 245.78,-0.28 241.63,2.56 238.45,7.28 236.30,12.34 233.16,18.28 230.96,24.80 227.88,31.54 224.45,36.07 218.76,38.44 210.84,40.18 204.69,42.34 200.53,45.67 198.07,49.43 194.56,52.33 184.00,58.00 92.00,102.00 88.00,106.00 85.77,109.39 84.11,113.29 80.00,118.00 75.37,120.27 70.56,121.29 65.63,120.87 61.62,119.06 58.09,116.01 55.31,111.92 53.55,107.11 53.47,101.62 55.39,96.20 58.90,91.71 63.26,88.65 67.63,87.68 71.73,87.77 75.85,87.52 81.24,85.14">
        <lane id="38014010_0" index="0" disallow="tram rail_urban rail rail_electric rail_fast ship" speed="16.67" length="1831.87" shape="114.30,66.70 120.21,62.61 124.62,57.16 126.63,52.65 126.94,47.16 125.18,41.56 122.66,36.89 119.44,32.90 114.98,29.73 109.70,27.33 104.26,23.70 100.54,19.60 98.41,14.34 98.19,8.69 100.10,3.91 104.72,1.31 110.54,2.26 116.15,5.41 120.34,9.67 123.14,13.64 126.45,15.27 129.32,14.89 131.89,12.71 133.56,9.00 137.52,5.11 143.42,2.74 149.83,2.72 154.75,4.57 194.59,32.03 200.01,33.56 205.58,32.48 209.55,29.75 210.29,26.56 209.55,23.67 205.70,21.65 200.25,22.05 195.86,22.27 191.96,21.23 186.18,18.19 181.10,12.99 177.95,6.66 171.96,-2.62 160.03,-14.76 152.16,-17.84 145.92,-16.61 138.50,-13.92 130.31,-11.25 122.48,-10.84 114.82,-11.96 106.73,-11.56 100.95,-12.31 94.61,-13.63 88.61,-16.24 85.03,-18.43 80.61,-19.51 75.44,-19.15 71.47,-17.48 68.41,-13.10 68.03,-8.74 69.54,-2.78 71.46,1.96 76.23,6.64 80.84,12.86 83.45,20.72 83.49,28.05 81.72,34.21 78.05,39.83 72.66,44.55 64.85,47.43 55.02,47.27 46.54,42.64 41.91,35.52 41.10,27.54 44.90,21.31 52.28,16.23 56.02,12.65 57.80,7.51 57.29,0.80 54.61,-6.24 49.81,-11.30 44.37,-14.45 37.01,-16.61 23.30,-15.99 3.14,-15.10 -41.08,-19.20 -49.25,-19.83 -59.12,-18.36 -68.63,-13.62 -74.22,-6.43 -75.89,1.90 -75.28,14.67 -70.91,24.53 -61.33,30.26 -50.98,31.38 -40.70,30.67 -33.23,24.94 -31.03,17.89 -27.60,11.16 -22.26,7.31 -14.86,4.97 -5.86,6.04 1.26,10.31 4.75,20.42 4.36,34.65 0.73,47.57 -13.08,60.90 -51.19,68.49 -82.28,65.22 -110.39,57.66 -117.96,54.33 -124.43,49.09 -126.92,42.57 -126.20,35.19 -117.90,-34.21 -115.52,-40.62 -109.48,-44.37 -101.28,-44.72 -96.20,-43.19 -91.57,-41.81 -87.49,-41.61 -24.94,-55.55 -18.91,-55.32 -13.98,-52.61 -9.31,-48.66 -4.99,-46.64 -1.67,-46.56 2.18,-47.55 4.97,-50.72 6.97,-54.37 10.09,-57.19 13.97,-57.53 17.95,-56.58 21.50,-54.95 24.28,-50.28 26.64,-47.80 28.66,-46.72 31.83,-47.15 34.91,-49.19 37.70,-53.65 42.65,-57.28 48.24,-57.54 53.39,-55.89 58.12,-51.66 63.47,-50.00 70.14,-52.83 77.01,-53.32 82.91,-50.58 88.26,-51.52 92.93,-53.65 97.40,-57.16 102.48,-59.68 109.46,-58.82 115.32,-56.26 118.99,-56.58 124.01,-58.68 129.51,-59.71 187.91,-98.55 192.11,-99.34 197.19,-97.94 200.81,-94.80 204.56,-93.83 207.25,-94.32 209.64,-95.97 212.13,-99.31 215.80,-101.98 221.63,-101.87 227.29,-97.75 255.64,-17.85 256.40,-12.53 255.41,-6.89 251.87,-2.43 246.68,1.05 242.79,3.71 239.86,8.05 237.75,13.03 234.63,18.91 232.45,25.39 229.26,32.37 225.46,37.38 219.24,39.97 211.28,41.72 205.48,43.76 201.73,46.76 199.28,50.51 195.46,53.66 184.72,59.43 92.94,103.33 89.25,107.02 87.19,110.15 85.48,114.15 80.99,119.29 75.90,121.79 70.66,122.90 65.22,122.44 60.75,120.42 56.88,117.08 53.88,112.66 51.95,107.40 51.87,101.36 53.97,95.42 57.79,90.54 62.60,87.16 67.47,86.08 71.70,86.17 75.47,85.94 80.59,83.68"/>
        <lane id="38014010_1" index="1" disallow="tram rail_urban rail rail_electric rail_fast ship" speed="16.67" length="1831.87" shape="116.13,69.33 122.41,64.97 127.38,58.84 129.79,53.41 130.16,46.76 128.14,40.32 125.34,35.11 121.66,30.54 116.58,26.95 111.26,24.53 106.36,21.26 103.30,17.88 101.59,13.66 101.41,9.25 102.66,6.15 105.32,4.65 109.46,5.32 114.19,7.97 117.88,11.73 121.00,16.16 125.91,18.57 130.68,17.93 134.51,14.69 136.24,10.86 139.30,7.85 144.04,5.94 149.25,5.92 153.25,7.43 193.21,34.97 199.87,36.84 206.84,35.50 212.39,31.69 213.59,26.52 212.29,21.49 206.38,18.39 200.05,18.85 196.20,19.05 193.14,18.23 188.12,15.59 183.74,11.11 180.73,5.08 174.48,-4.62 161.83,-17.50 152.46,-21.16 145.06,-19.71 137.46,-16.94 129.73,-14.43 122.62,-14.06 114.98,-15.18 106.85,-14.78 101.49,-15.47 95.59,-16.69 90.09,-19.08 86.27,-21.41 80.89,-22.73 74.70,-22.31 69.37,-20.08 65.29,-14.24 64.79,-8.48 66.50,-1.78 68.74,3.78 73.81,8.74 77.96,14.36 80.25,21.24 80.29,27.61 78.78,32.87 75.61,37.71 71.00,41.75 64.31,44.23 55.86,44.09 48.78,40.22 45.01,34.42 44.40,28.28 47.28,23.55 54.30,18.73 58.80,14.43 61.04,7.93 60.45,0.10 57.37,-7.98 51.81,-13.84 45.63,-17.41 37.39,-19.83 23.16,-19.19 3.22,-18.30 -40.80,-22.38 -49.37,-23.05 -60.10,-21.46 -70.71,-16.16 -77.20,-7.79 -79.11,1.66 -78.44,15.43 -73.43,26.75 -62.37,33.36 -51.04,34.60 -39.52,33.79 -30.47,26.86 -28.05,19.11 -25.10,13.30 -20.80,10.21 -14.56,8.23 -6.92,9.14 -1.38,12.45 1.53,20.92 1.18,34.17 -2.11,45.87 -14.62,57.94 -51.33,65.25 -81.70,62.06 -109.33,54.64 -116.28,51.57 -121.75,47.15 -123.66,42.13 -123.02,35.53 -114.76,-33.45 -112.90,-38.48 -108.50,-41.21 -101.68,-41.50 -97.12,-40.13 -92.11,-38.63 -87.21,-38.39 -24.64,-52.33 -19.79,-52.16 -15.80,-49.97 -11.05,-45.94 -5.75,-43.46 -1.31,-43.34 3.94,-44.69 7.61,-48.88 9.51,-52.35 11.43,-54.09 13.73,-54.29 16.91,-53.54 19.26,-52.45 21.72,-48.34 24.68,-45.22 28.06,-43.40 32.99,-44.07 37.25,-46.91 40.08,-51.43 43.77,-54.12 47.82,-54.32 51.77,-53.05 56.50,-48.82 63.63,-46.60 70.90,-49.67 76.41,-50.06 82.47,-47.26 89.22,-48.44 94.61,-50.89 99.12,-54.44 103.04,-56.38 108.60,-55.70 114.78,-53.00 119.77,-53.44 124.93,-55.60 130.73,-56.69 189.15,-95.53 191.97,-96.06 195.65,-95.04 199.29,-91.90 204.44,-90.55 208.51,-91.30 211.90,-93.63 214.41,-97.01 216.82,-98.76 220.57,-98.69 224.61,-95.75 252.52,-17.09 253.16,-12.59 252.39,-8.25 249.67,-4.81 244.88,-1.61 240.47,1.41 237.04,6.51 234.85,11.65 231.69,17.65 229.47,24.21 226.50,30.71 223.44,34.76 218.28,36.91 210.40,38.64 203.90,40.92 199.33,44.58 196.86,48.35 193.66,51.00 183.28,56.57 91.06,100.67 86.75,104.98 84.35,108.63 82.74,112.43 79.01,116.71 74.84,118.75 70.46,119.68 66.04,119.30 62.49,117.70 59.30,114.94 56.74,111.18 55.15,106.82 55.07,101.88 56.81,96.98 60.01,92.88 63.92,90.14 67.79,89.28 71.76,89.37 76.23,89.10 81.89,86.60"/>
    </edge>

    <junction id="4370324319" type="priority" x="81.24" y="85.14" incLanes="38014010_0 38014010_1" intLanes=":4370324319_0_0 :4370324319_0_1" shape="82.75,87.96 79.87,82.25 82.46,88.10">
        <request index="0" response="00" foes="00" cont="0"/>
        <request index="1" response="00" foes="00" cont="0"/>
    </junction>
    <junction id="446557694" type="priority" x="115.03" y="68.14" incLanes="25304430_0 25304430_1" intLanes=":446557694_0_0 :446557694_0_1" shape="117.04,70.64 113.39,65.38 116.27,71.10 116.56,70.95 116.66,70.89 116.76,70.83 116.88,70.75">
        <request index="0" response="00" foes="00" cont="0"/>
        <request index="1" response="00" foes="00" cont="0"/>
    </junction>

    <connection from="25304430" to="38014010" fromLane="0" toLane="0" via=":446557694_0_0" dir="s" state="M"/>
    <connection from="25304430" to="38014010" fromLane="1" toLane="1" via=":446557694_0_1" dir="s" state="M"/>
    <connection from="38014010" to="25304430" fromLane="0" toLane="0" via=":4370324319_0_0" dir="s" state="M"/>
    <connection from="38014010" to="25304430" fromLane="1" toLane="1" via=":4370324319_0_1" dir="s" state="M"/>

    <connection from=":4370324319_0" to="25304430" fromLane="0" toLane="0" dir="s" state="M"/>
    <connection from=":4370324319_0" to="25304430" fromLane="1" toLane="1" dir="s" state="M"/>
    <connection from=":446557694_0" to="38014010" fromLane="0" toLane="0" dir="s" state="M"/>
    <connection from=":446557694_0" to="38014010" fromLane="1" toLane="1" dir="s" state="M"/>

</net>
