<?xml version="1.0" encoding="UTF-8"?>

<!-- generated on Tue 03 Dec 2019 15:21:46 GMT by Eclipse SUMO netedit Version 1.3.1
<configuration xmlns:xsi="http://www.w3.org/2001/XMLSchema-instance" xsi:noNamespaceSchemaLocation="http://sumo.dlr.de/xsd/netconvertConfiguration.xsd">

    <input>
        <sumo-net-file value="/home/benedikt/dev/DriveML/tracks/1lane_new_a_bwd/map.net.xml"/>
    </input>

    <output>
        <output-file value="/home/benedikt/dev/DriveML/tracks/1lane_new_a_bwd/map.net.xml"/>
    </output>

    <processing>
        <geometry.max-grade.fix value="false"/>
        <offset.disable-normalization value="true"/>
        <opposites.guess.fix-lengths value="true"/>
        <lefthand value="false"/>
    </processing>

    <junctions>
        <no-turnarounds value="true"/>
        <junctions.corner-detail value="5"/>
        <junctions.limit-turn-speed value="5.5"/>
        <rectangular-lane-cut value="false"/>
    </junctions>

    <pedestrian>
        <walkingareas value="false"/>
    </pedestrian>

</configuration>
-->

<net version="1.3" junctionCornerDetail="5" limitTurnSpeed="5.50" xmlns:xsi="http://www.w3.org/2001/XMLSchema-instance" xsi:noNamespaceSchemaLocation="http://sumo.dlr.de/xsd/net_file.xsd">

    <location netOffset="-630882.85,-4856133.12" convBoundary="-113.86,-156.49,414.37,322.54" origBoundary="-79.371708,43.846679,-79.369237,43.847436" projParameter="+proj=utm +zone=17 +ellps=WGS84 +datum=WGS84 +units=m +no_defs"/>

    <type id="highway.bridleway" priority="1" numLanes="1" speed="2.78" allow="pedestrian" oneway="1" width="2.00"/>
    <type id="highway.bus_guideway" priority="1" numLanes="1" speed="27.78" allow="bus" oneway="1"/>
    <type id="highway.cycleway" priority="1" numLanes="1" speed="8.33" allow="bicycle" oneway="0" width="1.00"/>
    <type id="highway.footway" priority="1" numLanes="1" speed="2.78" allow="pedestrian" oneway="1" width="2.00"/>
    <type id="highway.ford" priority="1" numLanes="1" speed="2.78" allow="army" oneway="0"/>
    <type id="highway.living_street" priority="2" numLanes="1" speed="2.78" disallow="tram rail_urban rail rail_electric ship" oneway="0"/>
    <type id="highway.motorway" priority="14" numLanes="2" speed="39.44" allow="private emergency authority army vip passenger hov taxi bus coach delivery truck trailer motorcycle evehicle custom1 custom2" oneway="1"/>
    <type id="highway.motorway_link" priority="9" numLanes="1" speed="22.22" allow="private emergency authority army vip passenger hov taxi bus coach delivery truck trailer motorcycle evehicle custom1 custom2" oneway="1"/>
    <type id="highway.path" priority="1" numLanes="1" speed="2.78" allow="pedestrian bicycle" oneway="1" width="2.00"/>
    <type id="highway.pedestrian" priority="1" numLanes="1" speed="2.78" allow="pedestrian" oneway="1" width="2.00"/>
    <type id="highway.primary" priority="12" numLanes="2" speed="27.78" disallow="tram rail_urban rail rail_electric ship" oneway="0"/>
    <type id="highway.primary_link" priority="7" numLanes="1" speed="22.22" disallow="tram rail_urban rail rail_electric ship" oneway="0"/>
    <type id="highway.raceway" priority="15" numLanes="2" speed="83.33" allow="vip" oneway="0"/>
    <type id="highway.residential" priority="3" numLanes="1" speed="13.89" disallow="tram rail_urban rail rail_electric ship" oneway="0"/>
    <type id="highway.secondary" priority="11" numLanes="2" speed="27.78" disallow="tram rail_urban rail rail_electric ship" oneway="0"/>
    <type id="highway.secondary_link" priority="6" numLanes="1" speed="22.22" disallow="tram rail_urban rail rail_electric ship" oneway="0"/>
    <type id="highway.service" priority="1" numLanes="1" speed="5.56" allow="pedestrian delivery bicycle" oneway="0"/>
    <type id="highway.stairs" priority="1" numLanes="1" speed="1.39" allow="pedestrian" oneway="1" width="2.00"/>
    <type id="highway.step" priority="1" numLanes="1" speed="1.39" allow="pedestrian" oneway="1" width="2.00"/>
    <type id="highway.steps" priority="1" numLanes="1" speed="1.39" allow="pedestrian" oneway="1" width="2.00"/>
    <type id="highway.tertiary" priority="10" numLanes="1" speed="22.22" disallow="tram rail_urban rail rail_electric ship" oneway="0"/>
    <type id="highway.tertiary_link" priority="5" numLanes="1" speed="22.22" disallow="tram rail_urban rail rail_electric ship" oneway="0"/>
    <type id="highway.track" priority="1" numLanes="1" speed="5.56" disallow="tram rail_urban rail rail_electric ship" oneway="0"/>
    <type id="highway.trunk" priority="13" numLanes="2" speed="27.78" disallow="pedestrian bicycle tram rail_urban rail rail_electric ship" oneway="0"/>
    <type id="highway.trunk_link" priority="8" numLanes="1" speed="22.22" disallow="pedestrian bicycle tram rail_urban rail rail_electric ship" oneway="0"/>
    <type id="highway.unclassified" priority="4" numLanes="1" speed="13.89" disallow="tram rail_urban rail rail_electric ship" oneway="0"/>
    <type id="highway.unsurfaced" priority="1" numLanes="1" speed="8.33" disallow="tram rail_urban rail rail_electric ship" oneway="0"/>
    <type id="railway.light_rail" priority="19" numLanes="1" speed="27.78" allow="rail_urban" oneway="1"/>
    <type id="railway.preserved" priority="16" numLanes="1" speed="27.78" allow="rail" oneway="1"/>
    <type id="railway.rail" priority="20" numLanes="1" speed="83.33" allow="rail rail_electric" oneway="1"/>
    <type id="railway.subway" priority="18" numLanes="1" speed="27.78" allow="rail_urban" oneway="1"/>
    <type id="railway.tram" priority="17" numLanes="1" speed="13.89" allow="tram" oneway="1"/>

    <edge id=":275632284_0" function="internal">
        <lane id=":275632284_0_0" index="0" disallow="tram rail_urban rail rail_electric rail_fast ship" speed="16.67" length="0.50" shape="74.82,62.89 74.94,62.82 75.03,62.77 75.13,62.74 75.27,62.70"/>
    </edge>
    <edge id=":4370324319_0" function="internal">
        <lane id=":4370324319_0_0" index="0" disallow="tram rail_urban rail rail_electric rail_fast ship" speed="16.67" length="0.23" shape="27.13,69.91 27.35,69.96"/>
    </edge>

    <edge id="25304430" from="275632284" to="4370324319" priority="11" type="highway.secondary" spreadType="center" shape="75.03,62.76 83.60,60.68 91.26,56.56 97.77,50.73 101.23,43.30 107.17,38.88 113.01,40.03 119.62,42.19 122.19,49.66 121.74,56.72 122.72,61.78 128.28,66.56 135.42,71.22 141.13,76.11 147.08,80.25 154.10,83.62 162.04,85.72 169.86,85.51 172.80,80.95 175.65,75.15 178.39,72.68 184.23,71.84 189.41,70.67 194.31,67.54 194.14,61.40 191.46,55.71 191.05,49.66 193.05,44.42 196.41,39.54 202.60,33.88 207.72,29.84 213.34,26.95 222.03,26.73 231.79,26.82 240.04,26.89 251.29,26.99 261.54,27.08 273.55,27.44 285.55,27.48 292.80,27.50 300.30,27.53 308.80,27.56 315.86,27.58 322.20,29.86 325.56,36.17 325.85,43.57 325.80,52.03 325.85,61.36 325.89,68.27 325.92,74.11 325.95,79.01 325.98,84.86 326.02,90.87 326.07,96.38 326.08,101.11 326.11,105.97 326.02,111.12 324.79,115.57 322.09,119.60 318.82,121.35 313.75,123.27 309.95,124.70 301.21,127.10 294.40,128.96 286.61,130.88 280.58,132.36 274.05,133.96 268.12,135.42 260.65,137.21 255.00,138.56 248.76,140.05 243.05,141.42 236.86,142.90 232.22,142.87 227.50,142.24 223.16,140.86 219.20,139.08 216.78,135.98 215.88,133.08 215.74,129.38 217.11,126.70 219.70,123.87 227.40,120.17 231.88,118.61 238.41,117.86 246.86,118.40 254.92,119.51 260.20,120.09 265.29,119.43 272.12,116.98 280.12,113.23 286.44,109.07 291.82,105.53 298.87,100.89 304.25,94.41 308.32,86.58 310.89,78.02 312.44,69.63 312.61,60.78 310.03,52.43 305.38,44.94 295.51,41.31 285.35,38.75 274.06,38.38 268.00,39.78 264.72,41.94 262.43,46.70 261.43,50.63 260.71,59.45 262.77,67.67 270.28,74.48 278.22,77.49 285.42,83.18 287.42,91.09 283.60,99.63 276.22,105.53 263.43,107.99 253.11,104.35 246.23,97.90 244.28,90.10 238.02,84.37 229.08,80.89 215.28,79.23 204.15,81.89 195.47,89.90 191.81,98.25 190.63,106.04 187.01,120.18 184.15,126.85 181.78,132.38 177.30,143.74 173.34,154.77 169.73,161.82 162.98,172.57 153.18,178.20 143.72,179.86 132.35,177.16 123.09,171.35 117.39,163.28 109.90,151.38 103.53,142.65 100.22,137.52 96.71,132.10 93.40,127.81 90.32,123.83 86.34,119.11 81.93,113.87 78.46,110.47 74.26,106.37 68.40,100.07 61.67,96.13 55.19,94.63 47.47,94.26 39.51,96.27 33.92,99.87 28.64,104.44 22.07,108.27 16.78,109.40 11.80,110.46 3.02,110.88 -5.72,109.59 -14.33,107.13 -21.81,102.00 -27.63,96.47 -34.00,89.48 -40.65,81.28 -47.35,73.14 -52.11,67.33 -55.10,61.32 -57.89,54.33 -58.87,47.17 -58.23,39.84 -56.19,31.51 -51.89,23.92 -47.32,17.09 -42.97,10.53 -38.38,4.07 -32.31,-2.35 -26.08,-8.64 -18.56,-14.86 -11.25,-17.89 -2.79,-19.57 5.74,-23.19 11.71,-28.40 16.02,-36.41 19.62,-44.64 21.46,-54.05 22.44,-61.14 24.24,-68.74 25.59,-73.88 26.66,-77.95 28.36,-81.49 30.55,-86.04 33.33,-91.14 36.02,-95.74 38.93,-100.70 41.45,-105.00 43.94,-109.25 46.47,-113.57 50.95,-121.03 55.81,-128.64 62.31,-130.85 70.55,-131.26 76.21,-134.78 80.07,-140.66 77.56,-148.85 72.66,-153.37 64.89,-156.49 56.91,-155.77 49.31,-154.31 43.24,-148.53 41.46,-141.82 42.89,-133.29 43.20,-126.20 39.65,-119.92 36.43,-114.98 32.33,-109.33 28.62,-103.20 24.58,-96.50 21.01,-90.58 17.06,-84.04 13.07,-77.45 10.30,-72.86 7.75,-68.64 3.78,-63.60 -0.87,-57.70 -5.35,-52.02 -8.86,-47.57 -12.63,-42.79 -15.57,-39.06 -20.00,-36.32 -25.76,-32.76 -31.76,-29.05 -35.97,-26.45 -41.04,-23.32 -47.25,-19.48 -52.65,-16.15 -57.96,-12.87 -63.11,-9.69 -68.48,-6.37 -75.01,-1.86 -81.18,2.23 -87.23,7.08 -92.89,11.71 -97.05,16.51 -101.31,22.13 -104.72,27.77 -108.25,33.42 -111.26,39.84 -113.08,46.97 -113.86,55.12 -113.70,61.92 -113.01,69.68 -113.03,76.81 -113.09,83.52 -113.15,89.84 -113.21,95.64 -113.28,103.34 -113.33,108.02 -113.37,114.21 -113.41,120.57 -113.45,126.31 -113.49,132.36 -113.51,135.69 -113.54,140.24 -111.11,146.19 -107.47,152.38 -101.28,156.33 -96.11,158.80 -89.86,161.79 -85.26,163.99 -80.17,166.42 -74.34,169.21 -68.67,171.92 -65.24,173.56 -59.74,176.18 -54.66,178.61 -48.41,181.60 -42.32,184.51 -36.14,187.46 -31.31,189.77 -25.34,192.62 -19.72,193.61 -12.42,192.56 -7.35,190.67 -2.08,188.71 1.93,187.22 8.18,184.89 12.38,182.83 15.38,178.25 16.40,173.07 14.68,168.44 10.80,164.56 6.03,161.04 -0.78,158.37 -8.85,157.79 -13.29,157.21 -17.89,156.60 -22.70,154.87 -26.02,153.67 -33.73,150.60 -40.02,148.21 -45.87,145.60 -52.39,142.70 -57.78,140.30 -63.46,137.77 -69.13,135.25 -74.01,133.07 -77.49,130.87 -81.12,128.59 -83.54,125.66 -85.47,121.93 -86.10,116.74 -86.65,112.24 -87.27,107.09 -87.96,101.35 -88.55,96.46 -89.08,92.11 -89.56,88.14 -90.24,82.90 -90.94,74.36 -89.09,68.44 -83.93,64.76 -77.25,62.85 -70.61,64.10 -66.39,65.55 -62.42,69.13 -59.15,72.67 -55.91,76.28 -53.78,80.25 -51.52,84.86 -48.93,90.15 -46.93,94.22 -44.67,98.84 -42.48,103.31 -39.55,109.29 -37.56,113.36 -35.88,116.77 -33.85,119.36 -31.24,122.71 -25.79,125.87 -20.28,127.51 -15.18,128.06 -8.72,127.86 -4.75,127.56 0.28,127.17 5.68,127.91 9.95,130.26 13.07,132.89 16.54,137.15 19.98,142.37 22.41,147.37 24.52,153.55 26.58,160.27 28.26,165.97 29.88,172.75 31.68,178.57 33.59,185.02 36.55,190.47 40.59,196.27 45.78,200.18 52.43,202.81 59.86,203.54 66.05,203.12 73.44,201.74 79.51,198.99 83.32,195.69 87.05,190.99 89.45,185.72 92.57,181.46 97.62,178.82 102.14,178.19 106.19,178.65 111.90,179.63 116.44,181.99 120.53,185.77 124.14,191.54 126.41,196.44 127.22,201.96 127.05,208.99 124.18,216.57 122.00,222.23 123.01,228.50 125.79,234.18 130.14,238.64 135.77,240.75 142.38,244.54 145.98,249.73 147.44,255.80 147.15,261.01 145.66,265.85 142.92,270.88 139.46,276.75 137.82,283.39 137.56,290.36 140.11,295.96 143.36,302.70 148.04,309.02 152.19,312.04 157.87,316.17 161.93,319.73 165.33,321.59 170.79,322.54 175.37,321.66 179.98,319.39 182.84,317.30 186.53,313.59 188.95,308.27 192.61,304.03 196.92,299.95 199.71,297.31 203.09,294.11 206.09,291.27 209.62,287.93 213.67,284.10 216.15,281.76 218.73,279.32 221.22,275.79 223.89,272.00 226.97,267.63 228.52,265.43 232.33,260.02 234.97,256.28 238.74,250.93 239.51,248.00 240.42,244.55 241.83,239.22 243.37,233.40 245.31,226.05 246.61,221.16 248.08,215.60 249.51,210.19 251.96,205.83 257.51,200.87 262.83,197.53 268.36,194.23 272.49,191.77 277.37,187.87 282.04,182.83 287.72,177.25 290.82,172.99 294.17,168.38 298.02,163.08 301.63,158.12 304.53,154.13 308.45,150.66 313.45,146.31 318.35,144.31 324.12,143.92 329.86,144.46 336.09,143.67 340.42,140.25 342.67,135.10 341.85,128.35 339.35,121.47 337.40,114.62 338.06,108.02 340.87,103.06 344.22,98.53 346.58,95.35 349.79,91.02 352.64,87.17 355.46,83.36 358.26,76.65 358.41,72.00 357.00,66.11 356.64,60.16 358.94,55.48 363.47,51.65 369.14,48.23 375.15,46.64 379.23,45.80 384.04,44.81 390.58,43.51 397.44,42.25 401.77,41.44 406.89,38.91 409.43,36.42 413.09,32.88 414.37,29.09 413.91,24.32 411.59,20.43 406.60,18.53 401.59,17.26 396.29,16.95 387.36,16.53 377.26,17.65 369.83,17.59 363.71,17.50 356.85,17.42 349.98,17.72 336.83,16.96 328.30,17.61 317.57,17.70 308.24,17.26 298.74,18.51 290.88,20.22 281.31,20.13 274.08,18.39 268.16,16.04 260.92,15.34 252.92,16.89 244.89,18.18 237.45,18.31 230.02,18.44 223.45,16.33 218.71,12.00 214.49,7.69 207.88,7.19 202.03,9.19 196.23,9.82 190.71,8.32 184.51,6.15 176.57,5.20 169.63,5.60 163.00,7.22 156.49,9.36 146.37,13.38 135.52,17.55 129.80,19.29 121.82,20.86 114.81,20.81 107.92,20.21 101.01,19.39 94.00,18.67 86.13,17.07 77.34,15.07 70.28,12.94 63.34,10.27 57.34,8.00 52.00,6.00 46.00,4.00 40.00,2.00 35.07,0.86 29.36,0.00 22.71,0.34 17.26,1.75 12.47,3.97 8.28,6.98 5.40,10.75 1.93,16.34 0.00,21.78 -1.03,30.58 0.22,39.25 2.45,45.33 6.64,52.67 8.94,57.86 7.46,62.74 2.65,65.12 -4.63,64.31 -10.95,66.69 -15.94,70.29 -18.47,74.23 -19.54,80.51 -15.22,85.83 -9.32,87.98 -1.56,87.44 2.55,82.81 4.39,75.90 8.77,69.56 17.10,67.77 27.24,69.93">
        <lane id="25304430_0" index="0" disallow="tram rail_urban rail rail_electric rail_fast ship" speed="16.67" length="3750.70" shape="75.27,62.70 83.60,60.68 91.26,56.56 97.77,50.73 101.23,43.30 107.17,38.88 113.01,40.03 119.62,42.19 122.19,49.66 121.74,56.72 122.72,61.78 128.28,66.56 135.42,71.22 141.13,76.11 147.08,80.25 154.10,83.62 162.04,85.72 169.86,85.51 172.80,80.95 175.65,75.15 178.39,72.68 184.23,71.84 189.41,70.67 194.31,67.54 194.14,61.40 191.46,55.71 191.05,49.66 193.05,44.42 196.41,39.54 202.60,33.88 207.72,29.84 213.34,26.95 222.03,26.73 231.79,26.82 240.04,26.89 251.29,26.99 261.54,27.08 273.55,27.44 285.55,27.48 292.80,27.50 300.30,27.53 308.80,27.56 315.86,27.58 322.20,29.86 325.56,36.17 325.85,43.57 325.80,52.03 325.85,61.36 325.89,68.27 325.92,74.11 325.95,79.01 325.98,84.86 326.02,90.87 326.07,96.38 326.08,101.11 326.11,105.97 326.02,111.12 324.79,115.57 322.09,119.60 318.82,121.35 313.75,123.27 309.95,124.70 301.21,127.10 294.40,128.96 286.61,130.88 280.58,132.36 274.05,133.96 268.12,135.42 260.65,137.21 255.00,138.56 248.76,140.05 243.05,141.42 236.86,142.90 232.22,142.87 227.50,142.24 223.16,140.86 219.20,139.08 216.78,135.98 215.88,133.08 215.74,129.38 217.11,126.70 219.70,123.87 227.40,120.17 231.88,118.61 238.41,117.86 246.86,118.40 254.92,119.51 260.20,120.09 265.29,119.43 272.12,116.98 280.12,113.23 286.44,109.07 291.82,105.53 298.87,100.89 304.25,94.41 308.32,86.58 310.89,78.02 312.44,69.63 312.61,60.78 310.03,52.43 305.38,44.94 295.51,41.31 285.35,38.75 274.06,38.38 268.00,39.78 264.72,41.94 262.43,46.70 261.43,50.63 260.71,59.45 262.77,67.67 270.28,74.48 278.22,77.49 285.42,83.18 287.42,91.09 283.60,99.63 276.22,105.53 263.43,107.99 253.11,104.35 246.23,97.90 244.28,90.10 238.02,84.37 229.08,80.89 215.28,79.23 204.15,81.89 195.47,89.90 191.81,98.25 190.63,106.04 187.01,120.18 184.15,126.85 181.78,132.38 177.30,143.74 173.34,154.77 169.73,161.82 162.98,172.57 153.18,178.20 143.72,179.86 132.35,177.16 123.09,171.35 117.39,163.28 109.90,151.38 103.53,142.65 100.22,137.52 96.71,132.10 93.40,127.81 90.32,123.83 86.34,119.11 81.93,113.87 78.46,110.47 74.26,106.37 68.40,100.07 61.67,96.13 55.19,94.63 47.47,94.26 39.51,96.27 33.92,99.87 28.64,104.44 22.07,108.27 16.78,109.40 11.80,110.46 3.02,110.88 -5.72,109.59 -14.33,107.13 -21.81,102.00 -27.63,96.47 -34.00,89.48 -40.65,81.28 -47.35,73.14 -52.11,67.33 -55.10,61.32 -57.89,54.33 -58.87,47.17 -58.23,39.84 -56.19,31.51 -51.89,23.92 -47.32,17.09 -42.97,10.53 -38.38,4.07 -32.31,-2.35 -26.08,-8.64 -18.56,-14.86 -11.25,-17.89 -2.79,-19.57 5.74,-23.19 11.71,-28.40 16.02,-36.41 19.62,-44.64 21.46,-54.05 22.44,-61.14 24.24,-68.74 25.59,-73.88 26.66,-77.95 28.36,-81.49 30.55,-86.04 33.33,-91.14 36.02,-95.74 38.93,-100.70 41.45,-105.00 43.94,-109.25 46.47,-113.57 50.95,-121.03 55.81,-128.64 62.31,-130.85 70.55,-131.26 76.21,-134.78 80.07,-140.66 77.56,-148.85 72.66,-153.37 64.89,-156.49 56.91,-155.77 49.31,-154.31 43.24,-148.53 41.46,-141.82 42.89,-133.29 43.20,-126.20 39.65,-119.92 36.43,-114.98 32.33,-109.33 28.62,-103.20 24.58,-96.50 21.01,-90.58 17.06,-84.04 13.07,-77.45 10.30,-72.86 7.75,-68.64 3.78,-63.60 -0.87,-57.70 -5.35,-52.02 -8.86,-47.57 -12.63,-42.79 -15.57,-39.06 -20.00,-36.32 -25.76,-32.76 -31.76,-29.05 -35.97,-26.45 -41.04,-23.32 -47.25,-19.48 -52.65,-16.15 -57.96,-12.87 -63.11,-9.69 -68.48,-6.37 -75.01,-1.86 -81.18,2.23 -87.23,7.08 -92.89,11.71 -97.05,16.51 -101.31,22.13 -104.72,27.77 -108.25,33.42 -111.26,39.84 -113.08,46.97 -113.86,55.12 -113.70,61.92 -113.01,69.68 -113.03,76.81 -113.09,83.52 -113.15,89.84 -113.21,95.64 -113.28,103.34 -113.33,108.02 -113.37,114.21 -113.41,120.57 -113.45,126.31 -113.49,132.36 -113.51,135.69 -113.54,140.24 -111.11,146.19 -107.47,152.38 -101.28,156.33 -96.11,158.80 -89.86,161.79 -85.26,163.99 -80.17,166.42 -74.34,169.21 -68.67,171.92 -65.24,173.56 -59.74,176.18 -54.66,178.61 -48.41,181.60 -42.32,184.51 -36.14,187.46 -31.31,189.77 -25.34,192.62 -19.72,193.61 -12.42,192.56 -7.35,190.67 -2.08,188.71 1.93,187.22 8.18,184.89 12.38,182.83 15.38,178.25 16.40,173.07 14.68,168.44 10.80,164.56 6.03,161.04 -0.78,158.37 -8.85,157.79 -13.29,157.21 -17.89,156.60 -22.70,154.87 -26.02,153.67 -33.73,150.60 -40.02,148.21 -45.87,145.60 -52.39,142.70 -57.78,140.30 -63.46,137.77 -69.13,135.25 -74.01,133.07 -77.49,130.87 -81.12,128.59 -83.54,125.66 -85.47,121.93 -86.10,116.74 -86.65,112.24 -87.27,107.09 -87.96,101.35 -88.55,96.46 -89.08,92.11 -89.56,88.14 -90.24,82.90 -90.94,74.36 -89.09,68.44 -83.93,64.76 -77.25,62.85 -70.61,64.10 -66.39,65.55 -62.42,69.13 -59.15,72.67 -55.91,76.28 -53.78,80.25 -51.52,84.86 -48.93,90.15 -46.93,94.22 -44.67,98.84 -42.48,103.31 -39.55,109.29 -37.56,113.36 -35.88,116.77 -33.85,119.36 -31.24,122.71 -25.79,125.87 -20.28,127.51 -15.18,128.06 -8.72,127.86 -4.75,127.56 0.28,127.17 5.68,127.91 9.95,130.26 13.07,132.89 16.54,137.15 19.98,142.37 22.41,147.37 24.52,153.55 26.58,160.27 28.26,165.97 29.88,172.75 31.68,178.57 33.59,185.02 36.55,190.47 40.59,196.27 45.78,200.18 52.43,202.81 59.86,203.54 66.05,203.12 73.44,201.74 79.51,198.99 83.32,195.69 87.05,190.99 89.45,185.72 92.57,181.46 97.62,178.82 102.14,178.19 106.19,178.65 111.90,179.63 116.44,181.99 120.53,185.77 124.14,191.54 126.41,196.44 127.22,201.96 127.05,208.99 124.18,216.57 122.00,222.23 123.01,228.50 125.79,234.18 130.14,238.64 135.77,240.75 142.38,244.54 145.98,249.73 147.44,255.80 147.15,261.01 145.66,265.85 142.92,270.88 139.46,276.75 137.82,283.39 137.56,290.36 140.11,295.96 143.36,302.70 148.04,309.02 152.19,312.04 157.87,316.17 161.93,319.73 165.33,321.59 170.79,322.54 175.37,321.66 179.98,319.39 182.84,317.30 186.53,313.59 188.95,308.27 192.61,304.03 196.92,299.95 199.71,297.31 203.09,294.11 206.09,291.27 209.62,287.93 213.67,284.10 216.15,281.76 218.73,279.32 221.22,275.79 223.89,272.00 226.97,267.63 228.52,265.43 232.33,260.02 234.97,256.28 238.74,250.93 239.51,248.00 240.42,244.55 241.83,239.22 243.37,233.40 245.31,226.05 246.61,221.16 248.08,215.60 249.51,210.19 251.96,205.83 257.51,200.87 262.83,197.53 268.36,194.23 272.49,191.77 277.37,187.87 282.04,182.83 287.72,177.25 290.82,172.99 294.17,168.38 298.02,163.08 301.63,158.12 304.53,154.13 308.45,150.66 313.45,146.31 318.35,144.31 324.12,143.92 329.86,144.46 336.09,143.67 340.42,140.25 342.67,135.10 341.85,128.35 339.35,121.47 337.40,114.62 338.06,108.02 340.87,103.06 344.22,98.53 346.58,95.35 349.79,91.02 352.64,87.17 355.46,83.36 358.26,76.65 358.41,72.00 357.00,66.11 356.64,60.16 358.94,55.48 363.47,51.65 369.14,48.23 375.15,46.64 379.23,45.80 384.04,44.81 390.58,43.51 397.44,42.25 401.77,41.44 406.89,38.91 409.43,36.42 413.09,32.88 414.37,29.09 413.91,24.32 411.59,20.43 406.60,18.53 401.59,17.26 396.29,16.95 387.36,16.53 377.26,17.65 369.83,17.59 363.71,17.50 356.85,17.42 349.98,17.72 336.83,16.96 328.30,17.61 317.57,17.70 308.24,17.26 298.74,18.51 290.88,20.22 281.31,20.13 274.08,18.39 268.16,16.04 260.92,15.34 252.92,16.89 244.89,18.18 237.45,18.31 230.02,18.44 223.45,16.33 218.71,12.00 214.49,7.69 207.88,7.19 202.03,9.19 196.23,9.82 190.71,8.32 184.51,6.15 176.57,5.20 169.63,5.60 163.00,7.22 156.49,9.36 146.37,13.38 135.52,17.55 129.80,19.29 121.82,20.86 114.81,20.81 107.92,20.21 101.01,19.39 94.00,18.67 86.13,17.07 77.34,15.07 70.28,12.94 63.34,10.27 57.34,8.00 52.00,6.00 46.00,4.00 40.00,2.00 35.07,0.86 29.36,0.00 22.71,0.34 17.26,1.75 12.47,3.97 8.28,6.98 5.40,10.75 1.93,16.34 0.00,21.78 -1.03,30.58 0.22,39.25 2.45,45.33 6.64,52.67 8.94,57.86 7.46,62.74 2.65,65.12 -4.63,64.31 -10.95,66.69 -15.94,70.29 -18.47,74.23 -19.54,80.51 -15.22,85.83 -9.32,87.98 -1.56,87.44 2.55,82.81 4.39,75.90 8.77,69.56 17.10,67.77 27.13,69.91"/>
    </edge>
    <edge id="25304432" from="4370324319" to="275632284" priority="11" type="highway.secondary" spreadType="center" shape="27.24,69.93 35.24,71.95 41.08,76.58 45.26,79.98 51.36,82.05 57.70,82.04 62.06,78.69 64.09,75.32 65.44,71.06 68.59,66.71 75.03,62.76">
        <lane id="25304432_0" index="0" disallow="tram rail_urban rail rail_electric rail_fast ship" speed="16.67" length="60.33" shape="27.35,69.96 35.24,71.95 41.08,76.58 45.26,79.98 51.36,82.05 57.70,82.04 62.06,78.69 64.09,75.32 65.44,71.06 68.59,66.71 74.82,62.89"/>
    </edge>

    <junction id="275632284" type="priority" x="75.03" y="62.76" incLanes="25304432_0" intLanes=":275632284_0_0" shape="75.65,64.26 74.90,61.15 74.54,61.24 74.42,61.28 74.30,61.34 74.16,61.42 73.98,61.53">
        <request index="0" response="0" foes="0" cont="0"/>
    </junction>
    <junction id="4370324319" type="priority" x="27.24" y="69.93" incLanes="25304430_0" intLanes=":4370324319_0_0" shape="26.96,71.51 27.74,68.41 27.46,68.34 26.79,71.47">
        <request index="0" response="0" foes="0" cont="0"/>
    </junction>

    <connection from="25304430" to="25304432" fromLane="0" toLane="0" via=":4370324319_0_0" dir="s" state="M"/>
    <connection from="25304432" to="25304430" fromLane="0" toLane="0" via=":275632284_0_0" dir="s" state="M"/>

    <connection from=":275632284_0" to="25304430" fromLane="0" toLane="0" dir="s" state="M"/>
    <connection from=":4370324319_0" to="25304432" fromLane="0" toLane="0" dir="s" state="M"/>

</net>
